[General]
network = mptcpexperiments.simulations.experiments.experiment2.sharedleopaths
sim-time-limit = 120s
record-eventlog = false
cmdenv-express-mode = true
cmdenv-event-banners = false
cmdenv-redirect-output = false
cmdenv-output-file = dctcpLog.txt
cmdenv-log-prefix = %t | %m |
**.cmdenv-log-level = off

# Three MPTCP users, four subflows each, over eight 100 Mbps LEO-like paths.
# A uses paths 1,2,3,4; B uses 1,2,5,6; C uses 3,4,7,8.
# RTTs are 60,70,80,90,100,110,120,130 ms.
# Bottleneck buffers all use the highest path BDP, converted to MSS-sized packet counts:
# ceil(100 Mbps * 130 ms / (1448 bytes * 8)) = 1123.
**.numberOfClientServers = 3
**.numberOfSubflows = 4
**.startAllSubflowsAtBeginning = true
**.subflowStartTimes = ""
*.configurator.config = xml("<config><interface hosts='**' address='10.x.x.x' netmask='255.x.x.x'/><autoroute metric='delay'/></config>")
*.configurator.addDefaultRoutes = false
*.configurator.addSubnetRoutes = false
*.configurator.optimizeRoutes = false

**.client[*].numApps = 1
**.client[*].app[0].typename = "MpTcpSessionApp"
*.client[0].app[0].connectAddress = "server[0]"
*.client[1].app[0].connectAddress = "server[1]"
*.client[2].app[0].connectAddress = "server[2]"
*.client[0].tcp.subflowRemoteAddresses = "server[0]>router2[0] server[0]>router2[1] server[0]>router2[2] server[0]>router2[3]"
*.client[1].tcp.subflowRemoteAddresses = "server[1]>router2[0] server[1]>router2[1] server[1]>router2[4] server[1]>router2[5]"
*.client[2].tcp.subflowRemoteAddresses = "server[2]>router2[2] server[2]>router2[3] server[2]>router2[6] server[2]>router2[7]"
**.client[*].app[0].tOpen = 0.1s
**.client[*].app[0].tSend = 0.1s
**.client[*].app[0].tClose = -1s
**.client[*].app[0].sendBytes = 2GB
**.client[*].app[0].dataTransferMode = "bytecount"
**.client[*].app[0].statistic-recording = true

**.server[*].numApps = 1
**.server[*].app[0].typename = "MpTcpSinkApp"
**.server[*].app[0].serverThreadModuleType = "tcpgoodputapplications.applications.tcpapp.TcpGoodputSinkAppThread"

**.tcp.advertisedWindow = 200000000
**.tcp.windowScalingSupport = true
**.tcp.windowScalingFactor = -1
**.tcp.increasedIWEnabled = true
**.tcp.delayedAcksEnabled = false
**.tcp.timestampSupport = true
**.tcp.ecnWillingness = false
**.tcp.nagleEnabled = true
**.tcp.stopOperationTimeout = 4000s
**.tcp.mss = 1448
**.tcp.sackSupport = true
**.tcp.initialSsthresh = 5792000

**.goodputInterval = 0.5s
**.throughputInterval = 0.5s

**.**.goodput:vector(removeRepeats).vector-recording = true
**.**.goodput.result-recording-modes = vector(removeRepeats)
**.**.tcp.conn-*.throughput:vector(removeRepeats).vector-recording = true
**.**.tcp.conn-*.cwnd:vector(removeRepeats).vector-recording = true
**.**.tcp.conn-*.rtt:vector(removeRepeats).vector-recording = true
**.**.tcp.conn-*.srtt:vector(removeRepeats).vector-recording = true
**.**.tcp.conn-*.mbytesInFlight:vector(removeRepeats).vector-recording = true
**.**.tcp.conn-*.retransmissionRate:vector(removeRepeats).vector-recording = true
**.**.tcp.conn-*.holBlockedBytes:vector(removeRepeats).vector-recording = true
**.**.tcp.conn-*.metaExpectedDsn:vector(removeRepeats).vector-recording = true
**.**.tcp.conn-*.metaArrivedDsnStart:vector(removeRepeats).vector-recording = true
**.**.tcp.conn-*.metaDsnGapBytes:vector(removeRepeats).vector-recording = true
**.**.tcp.conn-*.**.result-recording-modes = vector(removeRepeats)
**.**.queue.queueLength:vector(removeRepeats).vector-recording = true
**.**.queue.queueLength.result-recording-modes = vector(removeRepeats)
**.**.queue.queueBitLength:vector(removeRepeats).vector-recording = true
**.**.queue.queueingTime:vector.vector-recording = true
**.scalar-recording = false
**.vector-recording = false
**.bin-recording = false

# Forward data bottlenecks are router1[*]; reverse ACK bottlenecks are router2[*].
# Paths 1-4 are shared by two users, so their bottleneck queues are ppp[2].
# Paths 5-8 are used by one user, so their bottleneck queues are ppp[1].
**.router1[0].ppp[2].queue.packetCapacity = 1123
**.router2[0].ppp[2].queue.packetCapacity = 1123
**.router1[1].ppp[2].queue.packetCapacity = 1123
**.router2[1].ppp[2].queue.packetCapacity = 1123
**.router1[2].ppp[2].queue.packetCapacity = 1123
**.router2[2].ppp[2].queue.packetCapacity = 1123
**.router1[3].ppp[2].queue.packetCapacity = 1123
**.router2[3].ppp[2].queue.packetCapacity = 1123
**.router1[4].ppp[1].queue.packetCapacity = 1123
**.router2[4].ppp[1].queue.packetCapacity = 1123
**.router1[5].ppp[1].queue.packetCapacity = 1123
**.router2[5].ppp[1].queue.packetCapacity = 1123
**.router1[6].ppp[1].queue.packetCapacity = 1123
**.router2[6].ppp[1].queue.packetCapacity = 1123
**.router1[7].ppp[1].queue.packetCapacity = 1123
**.router2[7].ppp[1].queue.packetCapacity = 1123

[Config CubicUncoupled]
extends = General
description = "Uncoupled MPTCP CUBIC, default scheduler."
**.schedulerMode = "default"
**.tcp.typename = "MpTcp"
**.tcp.tcpAlgorithmClass = "MpTcpMetaCubic"
**.ppp[*].queue.typename = "DropTailQueue"

[Config MpOrbUncoupled]
extends = General
description = "Uncoupled MPORB/ORBCC, default scheduler."
**.schedulerMode = "default"
**.tcp.typename = "MpOrb"
**.tcp.tcpAlgorithmClass = "MpOrbFlavour"
# ORBCC needs IntQueue on the forward bottlenecks; keep these before the broad DropTail fallback.
**.router1[0].ppp[2].queue.typename = "IntQueue"
**.router1[1].ppp[2].queue.typename = "IntQueue"
**.router1[2].ppp[2].queue.typename = "IntQueue"
**.router1[3].ppp[2].queue.typename = "IntQueue"
**.router1[4].ppp[1].queue.typename = "IntQueue"
**.router1[5].ppp[1].queue.typename = "IntQueue"
**.router1[6].ppp[1].queue.typename = "IntQueue"
**.router1[7].ppp[1].queue.typename = "IntQueue"

**.ppp[*].queue.typename = "DropTailQueue"

**.additiveIncreasePercent = 0.05
**.eta = 0.95
**.alpha = 0.01
**.fixedAvgRTTVal = 0
