[General]
ned-path = ../..:../../../src:../../../../mptcp/simulations:../../../../mptcp/src:../../../../mporb/simulations:../../../../mporb/src:../../../../orbtcp/simulations:../../../../orbtcp/src:../../../../cubic/simulations:../../../../cubic/src:../../../../tcpPaced/simulations:../../../../tcpPaced/src:../../../../tcpGoodputApplications/simulations:../../../../tcpGoodputApplications/src:../../../../inet4.5/examples:../../../../inet4.5/showcases:../../../../inet4.5/src:../../../../inet4.5/tests/validation:../../../../inet4.5/tests/networks:../../../../inet4.5/tutorials

network = mptcpexperiments.simulations.experiments.experiment1.schedulernegativetwopaths
sim-time-limit = 120s
record-eventlog = false
cmdenv-express-mode = true
cmdenv-event-banners = false
cmdenv-redirect-output = false
cmdenv-output-file = dctcpLog.txt
cmdenv-log-prefix = %t | %m |
**.cmdenv-log-level = off

# Path 0 is fixed at 20 ms RTT / 10 Mbps.
# Path 1 is swept from 20 ms to 180 ms RTT at 100 Mbps.
# Each config sets queue capacity to the BDP of that run's higher-RTT path.
# Example: 100 Mbps * 180 ms = ceil(18,000,000 / (1448 * 8)) = 1554 packets.
**.numberOfClientServers = 1
**.numberOfSubflows = 2
**.startAllSubflowsAtBeginning = true
**.subflowStartTimes = ""
**.fixedPathRtt = 20ms
**.fixedPathDatarate = 10Mbps
**.variablePathDatarate = 100Mbps
*.configurator.config = xml("<config><interface hosts='**' address='10.x.x.x' netmask='255.x.x.x'/><autoroute metric='delay'/></config>")
*.configurator.addDefaultRoutes = false
*.configurator.addSubnetRoutes = false
*.configurator.optimizeRoutes = false

**.client[*].numApps = 1
**.client[*].app[0].typename = "MpTcpSessionApp"
*.client[0].app[0].connectAddress = "server[0]"
*.client[0].tcp.subflowRemoteAddresses = "server[0]>router2a server[0]>router2b"
*.client[0].app[0].tOpen = 0.1s
*.client[0].app[0].tSend = 0.1s
*.client[0].app[0].tClose = -1s
*.client[0].app[0].sendBytes = 2GB
*.client[0].app[0].dataTransferMode = "bytecount"
*.client[0].app[0].statistic-recording = true

**.server[*].numApps = 1
**.server[*].app[0].typename = "MpTcpSinkApp"
**.server[*].app[0].serverThreadModuleType = "tcpgoodputapplications.applications.tcpapp.TcpGoodputSinkAppThread"

**.tcp.advertisedWindow = 200000000
**.tcp.windowScalingSupport = true
**.tcp.windowScalingFactor = -1
**.tcp.increasedIWEnabled = true
**.tcp.delayedAcksEnabled = false
**.tcp.timestampSupport = true
**.tcp.ecnWillingness = false
**.tcp.nagleEnabled = true
**.tcp.stopOperationTimeout = 4000s
**.tcp.mss = 1448
**.tcp.sackSupport = true
**.tcp.initialSsthresh = 5792000

**.goodputInterval = 0.5s
**.throughputInterval = 0.5s

**.**.goodput:vector(removeRepeats).vector-recording = true
**.**.goodput.result-recording-modes = vector(removeRepeats)
**.**.tcp.conn-*.throughput:vector(removeRepeats).vector-recording = true
**.**.tcp.conn-*.cwnd:vector(removeRepeats).vector-recording = true
**.**.tcp.conn-*.rtt:vector(removeRepeats).vector-recording = true
**.**.tcp.conn-*.srtt:vector(removeRepeats).vector-recording = true
**.**.tcp.conn-*.mbytesInFlight:vector(removeRepeats).vector-recording = true
**.**.tcp.conn-*.retransmissionRate:vector(removeRepeats).vector-recording = true
**.**.tcp.conn-*.holBlockedBytes:vector(removeRepeats).vector-recording = true
**.**.tcp.conn-*.metaExpectedDsn:vector(removeRepeats).vector-recording = true
**.**.tcp.conn-*.metaArrivedDsnStart:vector(removeRepeats).vector-recording = true
**.**.tcp.conn-*.metaDsnGapBytes:vector(removeRepeats).vector-recording = true
**.**.tcp.conn-*.**.result-recording-modes = vector(removeRepeats)
**.**.queue.queueLength:vector(removeRepeats).vector-recording = true
**.**.queue.queueLength.result-recording-modes = vector(removeRepeats)
**.**.queue.queueBitLength:vector(removeRepeats).vector-recording = true
**.**.queue.queueingTime:vector.vector-recording = true
**.scalar-recording = false
**.vector-recording = false
**.bin-recording = false

**.tcp.typename = "MpTcp"
**.tcp.tcpAlgorithmClass = "MpTcpMetaCubic"
**.ppp[*].queue.typename = "DropTailQueue"
**.ppp[*].queue.dropperClass = "inet::queueing::PacketAtCollectionEndDropper"

[Config CubicDefault_20ms]
extends = General
description = "MPTCP CUBIC, default scheduler, variable path 20 ms RTT."
**.schedulerMode = "default"
**.variablePathRtt = 20ms
# Queue = BDP of the higher-RTT path for this config.
**.ppp[*].queue.packetCapacity = 173
*.scenarioManager.script = xmldoc("../scenarios/experiment1/20ms.xml")
output-vector-file = "results/CubicDefault_20ms-#0.vec"
output-scalar-file = "results/CubicDefault_20ms-#0.sca"

[Config CubicDefault_40ms]
extends = General
description = "MPTCP CUBIC, default scheduler, variable path 40 ms RTT."
**.schedulerMode = "default"
**.variablePathRtt = 40ms
# Queue = BDP of the higher-RTT path for this config.
**.ppp[*].queue.packetCapacity = 346
*.scenarioManager.script = xmldoc("../scenarios/experiment1/40ms.xml")
output-vector-file = "results/CubicDefault_40ms-#0.vec"
output-scalar-file = "results/CubicDefault_40ms-#0.sca"

[Config CubicDefault_60ms]
extends = General
description = "MPTCP CUBIC, default scheduler, variable path 60 ms RTT."
**.schedulerMode = "default"
**.variablePathRtt = 60ms
# Queue = BDP of the higher-RTT path for this config.
**.ppp[*].queue.packetCapacity = 518
*.scenarioManager.script = xmldoc("../scenarios/experiment1/60ms.xml")
output-vector-file = "results/CubicDefault_60ms-#0.vec"
output-scalar-file = "results/CubicDefault_60ms-#0.sca"

[Config CubicDefault_80ms]
extends = General
description = "MPTCP CUBIC, default scheduler, variable path 80 ms RTT."
**.schedulerMode = "default"
**.variablePathRtt = 80ms
# Queue = BDP of the higher-RTT path for this config.
**.ppp[*].queue.packetCapacity = 691
*.scenarioManager.script = xmldoc("../scenarios/experiment1/80ms.xml")
output-vector-file = "results/CubicDefault_80ms-#0.vec"
output-scalar-file = "results/CubicDefault_80ms-#0.sca"

[Config CubicDefault_100ms]
extends = General
description = "MPTCP CUBIC, default scheduler, variable path 100 ms RTT."
**.schedulerMode = "default"
**.variablePathRtt = 100ms
# Queue = BDP of the higher-RTT path for this config.
**.ppp[*].queue.packetCapacity = 864
*.scenarioManager.script = xmldoc("../scenarios/experiment1/100ms.xml")
output-vector-file = "results/CubicDefault_100ms-#0.vec"
output-scalar-file = "results/CubicDefault_100ms-#0.sca"

[Config CubicDefault_120ms]
extends = General
description = "MPTCP CUBIC, default scheduler, variable path 120 ms RTT."
**.schedulerMode = "default"
**.variablePathRtt = 120ms
# Queue = BDP of the higher-RTT path for this config.
**.ppp[*].queue.packetCapacity = 1036
*.scenarioManager.script = xmldoc("../scenarios/experiment1/120ms.xml")
output-vector-file = "results/CubicDefault_120ms-#0.vec"
output-scalar-file = "results/CubicDefault_120ms-#0.sca"

[Config CubicDefault_140ms]
extends = General
description = "MPTCP CUBIC, default scheduler, variable path 140 ms RTT."
**.schedulerMode = "default"
**.variablePathRtt = 140ms
# Queue = BDP of the higher-RTT path for this config.
**.ppp[*].queue.packetCapacity = 1209
*.scenarioManager.script = xmldoc("../scenarios/experiment1/140ms.xml")
output-vector-file = "results/CubicDefault_140ms-#0.vec"
output-scalar-file = "results/CubicDefault_140ms-#0.sca"

[Config CubicDefault_160ms]
extends = General
description = "MPTCP CUBIC, default scheduler, variable path 160 ms RTT."
**.schedulerMode = "default"
**.variablePathRtt = 160ms
# Queue = BDP of the higher-RTT path for this config.
**.ppp[*].queue.packetCapacity = 1382
*.scenarioManager.script = xmldoc("../scenarios/experiment1/160ms.xml")
output-vector-file = "results/CubicDefault_160ms-#0.vec"
output-scalar-file = "results/CubicDefault_160ms-#0.sca"

[Config CubicDefault_180ms]
extends = General
description = "MPTCP CUBIC, default scheduler, variable path 180 ms RTT."
**.schedulerMode = "default"
**.variablePathRtt = 180ms
# Queue = BDP of the higher-RTT path for this config.
**.ppp[*].queue.packetCapacity = 1554
*.scenarioManager.script = xmldoc("../scenarios/experiment1/180ms.xml")
output-vector-file = "results/CubicDefault_180ms-#0.vec"
output-scalar-file = "results/CubicDefault_180ms-#0.sca"

[Config CubicLowestRtt_20ms]
extends = General
description = "MPTCP CUBIC, lowestRtt scheduler, variable path 20 ms RTT."
**.schedulerMode = "lowestRtt"
**.variablePathRtt = 20ms
# Queue = BDP of the higher-RTT path for this config.
**.ppp[*].queue.packetCapacity = 173
*.scenarioManager.script = xmldoc("../scenarios/experiment1/20ms.xml")
output-vector-file = "results/CubicLowestRtt_20ms-#0.vec"
output-scalar-file = "results/CubicLowestRtt_20ms-#0.sca"

[Config CubicLowestRtt_40ms]
extends = General
description = "MPTCP CUBIC, lowestRtt scheduler, variable path 40 ms RTT."
**.schedulerMode = "lowestRtt"
**.variablePathRtt = 40ms
# Queue = BDP of the higher-RTT path for this config.
**.ppp[*].queue.packetCapacity = 346
*.scenarioManager.script = xmldoc("../scenarios/experiment1/40ms.xml")
output-vector-file = "results/CubicLowestRtt_40ms-#0.vec"
output-scalar-file = "results/CubicLowestRtt_40ms-#0.sca"

[Config CubicLowestRtt_60ms]
extends = General
description = "MPTCP CUBIC, lowestRtt scheduler, variable path 60 ms RTT."
**.schedulerMode = "lowestRtt"
**.variablePathRtt = 60ms
# Queue = BDP of the higher-RTT path for this config.
**.ppp[*].queue.packetCapacity = 518
*.scenarioManager.script = xmldoc("../scenarios/experiment1/60ms.xml")
output-vector-file = "results/CubicLowestRtt_60ms-#0.vec"
output-scalar-file = "results/CubicLowestRtt_60ms-#0.sca"

[Config CubicLowestRtt_80ms]
extends = General
description = "MPTCP CUBIC, lowestRtt scheduler, variable path 80 ms RTT."
**.schedulerMode = "lowestRtt"
**.variablePathRtt = 80ms
# Queue = BDP of the higher-RTT path for this config.
**.ppp[*].queue.packetCapacity = 691
*.scenarioManager.script = xmldoc("../scenarios/experiment1/80ms.xml")
output-vector-file = "results/CubicLowestRtt_80ms-#0.vec"
output-scalar-file = "results/CubicLowestRtt_80ms-#0.sca"

[Config CubicLowestRtt_100ms]
extends = General
description = "MPTCP CUBIC, lowestRtt scheduler, variable path 100 ms RTT."
**.schedulerMode = "lowestRtt"
**.variablePathRtt = 100ms
# Queue = BDP of the higher-RTT path for this config.
**.ppp[*].queue.packetCapacity = 864
*.scenarioManager.script = xmldoc("../scenarios/experiment1/100ms.xml")
output-vector-file = "results/CubicLowestRtt_100ms-#0.vec"
output-scalar-file = "results/CubicLowestRtt_100ms-#0.sca"

[Config CubicLowestRtt_120ms]
extends = General
description = "MPTCP CUBIC, lowestRtt scheduler, variable path 120 ms RTT."
**.schedulerMode = "lowestRtt"
**.variablePathRtt = 120ms
# Queue = BDP of the higher-RTT path for this config.
**.ppp[*].queue.packetCapacity = 1036
*.scenarioManager.script = xmldoc("../scenarios/experiment1/120ms.xml")
output-vector-file = "results/CubicLowestRtt_120ms-#0.vec"
output-scalar-file = "results/CubicLowestRtt_120ms-#0.sca"

[Config CubicLowestRtt_140ms]
extends = General
description = "MPTCP CUBIC, lowestRtt scheduler, variable path 140 ms RTT."
**.schedulerMode = "lowestRtt"
**.variablePathRtt = 140ms
# Queue = BDP of the higher-RTT path for this config.
**.ppp[*].queue.packetCapacity = 1209
*.scenarioManager.script = xmldoc("../scenarios/experiment1/140ms.xml")
output-vector-file = "results/CubicLowestRtt_140ms-#0.vec"
output-scalar-file = "results/CubicLowestRtt_140ms-#0.sca"

[Config CubicLowestRtt_160ms]
extends = General
description = "MPTCP CUBIC, lowestRtt scheduler, variable path 160 ms RTT."
**.schedulerMode = "lowestRtt"
**.variablePathRtt = 160ms
# Queue = BDP of the higher-RTT path for this config.
**.ppp[*].queue.packetCapacity = 1382
*.scenarioManager.script = xmldoc("../scenarios/experiment1/160ms.xml")
output-vector-file = "results/CubicLowestRtt_160ms-#0.vec"
output-scalar-file = "results/CubicLowestRtt_160ms-#0.sca"

[Config CubicLowestRtt_180ms]
extends = General
description = "MPTCP CUBIC, lowestRtt scheduler, variable path 180 ms RTT."
**.schedulerMode = "lowestRtt"
**.variablePathRtt = 180ms
# Queue = BDP of the higher-RTT path for this config.
**.ppp[*].queue.packetCapacity = 1554
*.scenarioManager.script = xmldoc("../scenarios/experiment1/180ms.xml")
output-vector-file = "results/CubicLowestRtt_180ms-#0.vec"
output-scalar-file = "results/CubicLowestRtt_180ms-#0.sca"

