[General]
ned-path = ../..:../../../src:../../../../mptcp/simulations:../../../../mptcp/src:../../../../mporb/simulations:../../../../mporb/src:../../../../orbtcp/simulations:../../../../orbtcp/src:../../../../cubic/simulations:../../../../cubic/src:../../../../tcpPaced/simulations:../../../../tcpPaced/src:../../../../tcpGoodputApplications/simulations:../../../../tcpGoodputApplications/src:../../../../inet4.5/examples:../../../../inet4.5/showcases:../../../../inet4.5/src:../../../../inet4.5/tests/validation:../../../../inet4.5/tests/networks:../../../../inet4.5/tutorials

network = mptcpexperiments.simulations.experiments.experiment1.schedulernegativetwopaths
sim-time-limit = 120s
record-eventlog = false
cmdenv-express-mode = true
cmdenv-event-banners = false
cmdenv-redirect-output = false
cmdenv-output-file = dctcpLog.txt
cmdenv-log-prefix = %t | %m |
**.cmdenv-log-level = off

# Path 0 is fixed at 20 ms RTT / 10 Mbps.
# Path 1 is swept from 20 ms to 180 ms RTT at 100 Mbps.
# The common queue size uses the highest swept BDP:
# 100 Mbps * 180 ms = ceil(18,000,000 / (1448 * 8)) = 1554 packets.
**.numberOfClientServers = 1
**.numberOfSubflows = 2
**.startAllSubflowsAtBeginning = true
**.subflowStartTimes = ""
**.fixedPathRtt = 20ms
**.fixedPathDatarate = 10Mbps
**.variablePathDatarate = 100Mbps
*.configurator.config = xml("<config><interface hosts='**' address='10.x.x.x' netmask='255.x.x.x'/><autoroute metric='delay'/></config>")
*.configurator.addDefaultRoutes = false
*.configurator.addSubnetRoutes = false
*.configurator.optimizeRoutes = false

**.client[*].numApps = 1
**.client[*].app[0].typename = "MpTcpSessionApp"
*.client[0].app[0].connectAddress = "server[0]"
*.client[0].tcp.subflowRemoteAddresses = "server[0]>router2a server[0]>router2b"
*.client[0].app[0].tOpen = 0.1s
*.client[0].app[0].tSend = 0.1s
*.client[0].app[0].tClose = -1s
*.client[0].app[0].sendBytes = 2GB
*.client[0].app[0].dataTransferMode = "bytecount"
*.client[0].app[0].statistic-recording = true

**.server[*].numApps = 1
**.server[*].app[0].typename = "MpTcpSinkApp"
**.server[*].app[0].serverThreadModuleType = "tcpgoodputapplications.applications.tcpapp.TcpGoodputSinkAppThread"

**.tcp.advertisedWindow = 200000000
**.tcp.windowScalingSupport = true
**.tcp.windowScalingFactor = -1
**.tcp.increasedIWEnabled = true
**.tcp.delayedAcksEnabled = false
**.tcp.timestampSupport = true
**.tcp.ecnWillingness = false
**.tcp.nagleEnabled = true
**.tcp.stopOperationTimeout = 4000s
**.tcp.mss = 1448
**.tcp.sackSupport = true
**.tcp.initialSsthresh = 5792000

**.goodputInterval = 0.5s
**.throughputInterval = 0.5s

**.**.goodput:vector(removeRepeats).vector-recording = true
**.**.goodput.result-recording-modes = vector(removeRepeats)
**.**.tcp.conn-*.throughput:vector(removeRepeats).vector-recording = true
**.**.tcp.conn-*.cwnd:vector(removeRepeats).vector-recording = true
**.**.tcp.conn-*.rtt:vector(removeRepeats).vector-recording = true
**.**.tcp.conn-*.srtt:vector(removeRepeats).vector-recording = true
**.**.tcp.conn-*.mbytesInFlight:vector(removeRepeats).vector-recording = true
**.**.tcp.conn-*.retransmissionRate:vector(removeRepeats).vector-recording = true
**.**.tcp.conn-*.holBlockedBytes:vector(removeRepeats).vector-recording = true
**.**.tcp.conn-*.metaExpectedDsn:vector(removeRepeats).vector-recording = true
**.**.tcp.conn-*.metaArrivedDsnStart:vector(removeRepeats).vector-recording = true
**.**.tcp.conn-*.metaDsnGapBytes:vector(removeRepeats).vector-recording = true
**.**.tcp.conn-*.**.result-recording-modes = vector(removeRepeats)
**.**.queue.queueLength:vector(removeRepeats).vector-recording = true
**.**.queue.queueLength.result-recording-modes = vector(removeRepeats)
**.**.queue.queueBitLength:vector(removeRepeats).vector-recording = true
**.**.queue.queueingTime:vector.vector-recording = true
**.scalar-recording = false
**.vector-recording = false
**.bin-recording = false

**.tcp.typename = "MpOrb"
**.tcp.tcpAlgorithmClass = "MpOrbFlavour"
# ORBCC needs IntQueue on the forward bottlenecks to append INT queue telemetry.
# Keep these before the broad DropTail fallback so the specific queues are created as IntQueue.
**.router1a.ppp[1].queue.typename = "IntQueue"
**.router1b.ppp[1].queue.typename = "IntQueue"
**.ppp[*].queue.typename = "DropTailQueue"
**.ppp[*].queue.packetCapacity = 1554
**.ppp[*].queue.dropperClass = "inet::queueing::PacketAtCollectionEndDropper"
**.additiveIncreasePercent = 0.05
**.eta = 0.95
**.alpha = 0.01
**.fixedAvgRTTVal = 0

[Config MpOrbDefault_20ms]
extends = General
description = "MPORB/ORBCC, default scheduler, variable path 20 ms RTT."
**.schedulerMode = "default"
**.variablePathRtt = 20ms
*.scenarioManager.script = xmldoc("../scenarios/experiment1/20ms.xml")
output-vector-file = "results/MpOrbDefault_20ms-#0.vec"
output-scalar-file = "results/MpOrbDefault_20ms-#0.sca"

[Config MpOrbDefault_40ms]
extends = General
description = "MPORB/ORBCC, default scheduler, variable path 40 ms RTT."
**.schedulerMode = "default"
**.variablePathRtt = 40ms
*.scenarioManager.script = xmldoc("../scenarios/experiment1/40ms.xml")
output-vector-file = "results/MpOrbDefault_40ms-#0.vec"
output-scalar-file = "results/MpOrbDefault_40ms-#0.sca"

[Config MpOrbDefault_60ms]
extends = General
description = "MPORB/ORBCC, default scheduler, variable path 60 ms RTT."
**.schedulerMode = "default"
**.variablePathRtt = 60ms
*.scenarioManager.script = xmldoc("../scenarios/experiment1/60ms.xml")
output-vector-file = "results/MpOrbDefault_60ms-#0.vec"
output-scalar-file = "results/MpOrbDefault_60ms-#0.sca"

[Config MpOrbDefault_80ms]
extends = General
description = "MPORB/ORBCC, default scheduler, variable path 80 ms RTT."
**.schedulerMode = "default"
**.variablePathRtt = 80ms
*.scenarioManager.script = xmldoc("../scenarios/experiment1/80ms.xml")
output-vector-file = "results/MpOrbDefault_80ms-#0.vec"
output-scalar-file = "results/MpOrbDefault_80ms-#0.sca"

[Config MpOrbDefault_100ms]
extends = General
description = "MPORB/ORBCC, default scheduler, variable path 100 ms RTT."
**.schedulerMode = "default"
**.variablePathRtt = 100ms
*.scenarioManager.script = xmldoc("../scenarios/experiment1/100ms.xml")
output-vector-file = "results/MpOrbDefault_100ms-#0.vec"
output-scalar-file = "results/MpOrbDefault_100ms-#0.sca"

[Config MpOrbDefault_120ms]
extends = General
description = "MPORB/ORBCC, default scheduler, variable path 120 ms RTT."
**.schedulerMode = "default"
**.variablePathRtt = 120ms
*.scenarioManager.script = xmldoc("../scenarios/experiment1/120ms.xml")
output-vector-file = "results/MpOrbDefault_120ms-#0.vec"
output-scalar-file = "results/MpOrbDefault_120ms-#0.sca"

[Config MpOrbDefault_140ms]
extends = General
description = "MPORB/ORBCC, default scheduler, variable path 140 ms RTT."
**.schedulerMode = "default"
**.variablePathRtt = 140ms
*.scenarioManager.script = xmldoc("../scenarios/experiment1/140ms.xml")
output-vector-file = "results/MpOrbDefault_140ms-#0.vec"
output-scalar-file = "results/MpOrbDefault_140ms-#0.sca"

[Config MpOrbDefault_160ms]
extends = General
description = "MPORB/ORBCC, default scheduler, variable path 160 ms RTT."
**.schedulerMode = "default"
**.variablePathRtt = 160ms
*.scenarioManager.script = xmldoc("../scenarios/experiment1/160ms.xml")
output-vector-file = "results/MpOrbDefault_160ms-#0.vec"
output-scalar-file = "results/MpOrbDefault_160ms-#0.sca"

[Config MpOrbDefault_180ms]
extends = General
description = "MPORB/ORBCC, default scheduler, variable path 180 ms RTT."
**.schedulerMode = "default"
**.variablePathRtt = 180ms
*.scenarioManager.script = xmldoc("../scenarios/experiment1/180ms.xml")
output-vector-file = "results/MpOrbDefault_180ms-#0.vec"
output-scalar-file = "results/MpOrbDefault_180ms-#0.sca"

[Config MpOrbLowestRtt_20ms]
extends = General
description = "MPORB/ORBCC, lowestRtt scheduler, variable path 20 ms RTT."
**.schedulerMode = "lowestRtt"
**.variablePathRtt = 20ms
*.scenarioManager.script = xmldoc("../scenarios/experiment1/20ms.xml")
output-vector-file = "results/MpOrbLowestRtt_20ms-#0.vec"
output-scalar-file = "results/MpOrbLowestRtt_20ms-#0.sca"

[Config MpOrbLowestRtt_40ms]
extends = General
description = "MPORB/ORBCC, lowestRtt scheduler, variable path 40 ms RTT."
**.schedulerMode = "lowestRtt"
**.variablePathRtt = 40ms
*.scenarioManager.script = xmldoc("../scenarios/experiment1/40ms.xml")
output-vector-file = "results/MpOrbLowestRtt_40ms-#0.vec"
output-scalar-file = "results/MpOrbLowestRtt_40ms-#0.sca"

[Config MpOrbLowestRtt_60ms]
extends = General
description = "MPORB/ORBCC, lowestRtt scheduler, variable path 60 ms RTT."
**.schedulerMode = "lowestRtt"
**.variablePathRtt = 60ms
*.scenarioManager.script = xmldoc("../scenarios/experiment1/60ms.xml")
output-vector-file = "results/MpOrbLowestRtt_60ms-#0.vec"
output-scalar-file = "results/MpOrbLowestRtt_60ms-#0.sca"

[Config MpOrbLowestRtt_80ms]
extends = General
description = "MPORB/ORBCC, lowestRtt scheduler, variable path 80 ms RTT."
**.schedulerMode = "lowestRtt"
**.variablePathRtt = 80ms
*.scenarioManager.script = xmldoc("../scenarios/experiment1/80ms.xml")
output-vector-file = "results/MpOrbLowestRtt_80ms-#0.vec"
output-scalar-file = "results/MpOrbLowestRtt_80ms-#0.sca"

[Config MpOrbLowestRtt_100ms]
extends = General
description = "MPORB/ORBCC, lowestRtt scheduler, variable path 100 ms RTT."
**.schedulerMode = "lowestRtt"
**.variablePathRtt = 100ms
*.scenarioManager.script = xmldoc("../scenarios/experiment1/100ms.xml")
output-vector-file = "results/MpOrbLowestRtt_100ms-#0.vec"
output-scalar-file = "results/MpOrbLowestRtt_100ms-#0.sca"

[Config MpOrbLowestRtt_120ms]
extends = General
description = "MPORB/ORBCC, lowestRtt scheduler, variable path 120 ms RTT."
**.schedulerMode = "lowestRtt"
**.variablePathRtt = 120ms
*.scenarioManager.script = xmldoc("../scenarios/experiment1/120ms.xml")
output-vector-file = "results/MpOrbLowestRtt_120ms-#0.vec"
output-scalar-file = "results/MpOrbLowestRtt_120ms-#0.sca"

[Config MpOrbLowestRtt_140ms]
extends = General
description = "MPORB/ORBCC, lowestRtt scheduler, variable path 140 ms RTT."
**.schedulerMode = "lowestRtt"
**.variablePathRtt = 140ms
*.scenarioManager.script = xmldoc("../scenarios/experiment1/140ms.xml")
output-vector-file = "results/MpOrbLowestRtt_140ms-#0.vec"
output-scalar-file = "results/MpOrbLowestRtt_140ms-#0.sca"

[Config MpOrbLowestRtt_160ms]
extends = General
description = "MPORB/ORBCC, lowestRtt scheduler, variable path 160 ms RTT."
**.schedulerMode = "lowestRtt"
**.variablePathRtt = 160ms
*.scenarioManager.script = xmldoc("../scenarios/experiment1/160ms.xml")
output-vector-file = "results/MpOrbLowestRtt_160ms-#0.vec"
output-scalar-file = "results/MpOrbLowestRtt_160ms-#0.sca"

[Config MpOrbLowestRtt_180ms]
extends = General
description = "MPORB/ORBCC, lowestRtt scheduler, variable path 180 ms RTT."
**.schedulerMode = "lowestRtt"
**.variablePathRtt = 180ms
*.scenarioManager.script = xmldoc("../scenarios/experiment1/180ms.xml")
output-vector-file = "results/MpOrbLowestRtt_180ms-#0.vec"
output-scalar-file = "results/MpOrbLowestRtt_180ms-#0.sca"

[Config MpOrbDirectPull_20ms]
extends = General
description = "MPORB/ORBCC, directPull scheduler, variable path 20 ms RTT."
**.schedulerMode = "directPull"
**.variablePathRtt = 20ms
*.scenarioManager.script = xmldoc("../scenarios/experiment1/20ms.xml")
output-vector-file = "results/MpOrbDirectPull_20ms-#0.vec"
output-scalar-file = "results/MpOrbDirectPull_20ms-#0.sca"

[Config MpOrbDirectPull_40ms]
extends = General
description = "MPORB/ORBCC, directPull scheduler, variable path 40 ms RTT."
**.schedulerMode = "directPull"
**.variablePathRtt = 40ms
*.scenarioManager.script = xmldoc("../scenarios/experiment1/40ms.xml")
output-vector-file = "results/MpOrbDirectPull_40ms-#0.vec"
output-scalar-file = "results/MpOrbDirectPull_40ms-#0.sca"

[Config MpOrbDirectPull_60ms]
extends = General
description = "MPORB/ORBCC, directPull scheduler, variable path 60 ms RTT."
**.schedulerMode = "directPull"
**.variablePathRtt = 60ms
*.scenarioManager.script = xmldoc("../scenarios/experiment1/60ms.xml")
output-vector-file = "results/MpOrbDirectPull_60ms-#0.vec"
output-scalar-file = "results/MpOrbDirectPull_60ms-#0.sca"

[Config MpOrbDirectPull_80ms]
extends = General
description = "MPORB/ORBCC, directPull scheduler, variable path 80 ms RTT."
**.schedulerMode = "directPull"
**.variablePathRtt = 80ms
*.scenarioManager.script = xmldoc("../scenarios/experiment1/80ms.xml")
output-vector-file = "results/MpOrbDirectPull_80ms-#0.vec"
output-scalar-file = "results/MpOrbDirectPull_80ms-#0.sca"

[Config MpOrbDirectPull_100ms]
extends = General
description = "MPORB/ORBCC, directPull scheduler, variable path 100 ms RTT."
**.schedulerMode = "directPull"
**.variablePathRtt = 100ms
*.scenarioManager.script = xmldoc("../scenarios/experiment1/100ms.xml")
output-vector-file = "results/MpOrbDirectPull_100ms-#0.vec"
output-scalar-file = "results/MpOrbDirectPull_100ms-#0.sca"

[Config MpOrbDirectPull_120ms]
extends = General
description = "MPORB/ORBCC, directPull scheduler, variable path 120 ms RTT."
**.schedulerMode = "directPull"
**.variablePathRtt = 120ms
*.scenarioManager.script = xmldoc("../scenarios/experiment1/120ms.xml")
output-vector-file = "results/MpOrbDirectPull_120ms-#0.vec"
output-scalar-file = "results/MpOrbDirectPull_120ms-#0.sca"

[Config MpOrbDirectPull_140ms]
extends = General
description = "MPORB/ORBCC, directPull scheduler, variable path 140 ms RTT."
**.schedulerMode = "directPull"
**.variablePathRtt = 140ms
*.scenarioManager.script = xmldoc("../scenarios/experiment1/140ms.xml")
output-vector-file = "results/MpOrbDirectPull_140ms-#0.vec"
output-scalar-file = "results/MpOrbDirectPull_140ms-#0.sca"

[Config MpOrbDirectPull_160ms]
extends = General
description = "MPORB/ORBCC, directPull scheduler, variable path 160 ms RTT."
**.schedulerMode = "directPull"
**.variablePathRtt = 160ms
*.scenarioManager.script = xmldoc("../scenarios/experiment1/160ms.xml")
output-vector-file = "results/MpOrbDirectPull_160ms-#0.vec"
output-scalar-file = "results/MpOrbDirectPull_160ms-#0.sca"

[Config MpOrbDirectPull_180ms]
extends = General
description = "MPORB/ORBCC, directPull scheduler, variable path 180 ms RTT."
**.schedulerMode = "directPull"
**.variablePathRtt = 180ms
*.scenarioManager.script = xmldoc("../scenarios/experiment1/180ms.xml")
output-vector-file = "results/MpOrbDirectPull_180ms-#0.vec"
output-scalar-file = "results/MpOrbDirectPull_180ms-#0.sca"

