[General]
ned-path = ../..:../../../src:../../../../mptcp/simulations:../../../../mptcp/src:../../../../mporb/simulations:../../../../mporb/src:../../../../orbtcp/simulations:../../../../orbtcp/src:../../../../cubic/simulations:../../../../cubic/src:../../../../tcpPaced/simulations:../../../../tcpPaced/src:../../../../tcpGoodputApplications/simulations:../../../../tcpGoodputApplications/src:../../../../inet4.5/examples:../../../../inet4.5/showcases:../../../../inet4.5/src:../../../../inet4.5/tests/validation:../../../../inet4.5/tests/networks:../../../../inet4.5/tutorials

network = mptcpexperiments.simulations.experiments.experiment1.schedulernegativetwopaths
sim-time-limit = 120s
record-eventlog = false
cmdenv-express-mode = true
cmdenv-event-banners = false
cmdenv-redirect-output = false
cmdenv-output-file = dctcpLog.txt
cmdenv-log-prefix = %t | %m |
**.cmdenv-log-level = off

# Path 0 is fixed at 20 ms RTT / 10 Mbps.
# Path 1 is swept from 20 ms to 180 ms RTT at 100 Mbps.
# Each config sets queue capacity to the BDP of that run's higher-RTT path.
# Example: 100 Mbps * 180 ms = ceil(18,000,000 / (1448 * 8)) = 1554 packets.
# Run configs start the MPTCP flow uniformly in the first 5 seconds.
**.numberOfClientServers = 1
**.numberOfSubflows = 2
**.startAllSubflowsAtBeginning = true
**.subflowStartTimes = ""
**.fixedPathRtt = 20ms
**.fixedPathDatarate = 10Mbps
**.variablePathDatarate = 100Mbps
*.configurator.config = xml("<config><interface hosts='**' address='10.x.x.x' netmask='255.x.x.x'/><autoroute metric='delay'/></config>")
*.configurator.addDefaultRoutes = false
*.configurator.addSubnetRoutes = false
*.configurator.optimizeRoutes = false

**.client[*].numApps = 1
**.client[*].app[0].typename = "MpTcpSessionApp"
*.client[0].app[0].connectAddress = "server[0]"
*.client[0].tcp.subflowRemoteAddresses = "server[0]>router2a server[0]>router2b"
*.client[0].app[0].tOpen = 0.1s
*.client[0].app[0].tSend = 0.1s
*.client[0].app[0].tClose = -1s
*.client[0].app[0].sendBytes = 2GB
*.client[0].app[0].dataTransferMode = "bytecount"
*.client[0].app[0].statistic-recording = true

**.server[*].numApps = 1
**.server[*].app[0].typename = "MpTcpSinkApp"
**.server[*].app[0].serverThreadModuleType = "tcpgoodputapplications.applications.tcpapp.TcpGoodputSinkAppThread"

**.tcp.advertisedWindow = 200000000
**.tcp.windowScalingSupport = true
**.tcp.windowScalingFactor = -1
**.tcp.increasedIWEnabled = true
**.tcp.delayedAcksEnabled = false
**.tcp.timestampSupport = true
**.tcp.ecnWillingness = false
**.tcp.nagleEnabled = true
**.tcp.stopOperationTimeout = 4000s
**.tcp.mss = 1448
**.tcp.sackSupport = true
**.tcp.initialSsthresh = 5792000
**.tcp.sendQueueLimit = 4MiB

**.goodputInterval = 0.5s
**.throughputInterval = 0.5s

**.**.goodput:vector(removeRepeats).vector-recording = true
**.**.goodput.result-recording-modes = vector(removeRepeats)
**.**.tcp.conn-*.throughput:vector(removeRepeats).vector-recording = true
**.**.tcp.conn-*.cwnd:vector(removeRepeats).vector-recording = true
**.**.tcp.conn-*.rtt:vector(removeRepeats).vector-recording = true
**.**.tcp.conn-*.srtt:vector(removeRepeats).vector-recording = true
**.**.tcp.conn-*.mbytesInFlight:vector(removeRepeats).vector-recording = true
**.**.tcp.conn-*.retransmissionRate:vector(removeRepeats).vector-recording = true
**.**.tcp.conn-*.txRate:vector(removeRepeats).vector-recording = true
**.**.tcp.conn-*.U:vector(removeRepeats).vector-recording = true
**.**.tcp.conn-*.u:vector(removeRepeats).vector-recording = true
**.**.tcp.conn-*.additiveIncrease:vector(removeRepeats).vector-recording = true
**.**.tcp.conn-*.sharingFlows:vector(removeRepeats).vector-recording = true
**.**.tcp.conn-*.bottleneckBandwidth:vector(removeRepeats).vector-recording = true
**.**.tcp.conn-*.queueingDelay:vector(removeRepeats).vector-recording = true
**.**.tcp.conn-*.holBlockedBytes:vector(removeRepeats).vector-recording = true
**.**.tcp.conn-*.metaExpectedDsn:vector(removeRepeats).vector-recording = true
**.**.tcp.conn-*.metaArrivedDsnStart:vector(removeRepeats).vector-recording = true
**.**.tcp.conn-*.metaDsnGapBytes:vector(removeRepeats).vector-recording = true
**.**.tcp.conn-*.metaReinjectedBytes:vector(removeRepeats).vector-recording = true
**.**.tcp.conn-*.metaReinjections:vector(removeRepeats).vector-recording = true
**.**.tcp.conn-*.**.result-recording-modes = vector(removeRepeats)
**.**.queue.queueLength:vector(removeRepeats).vector-recording = true
**.**.queue.queueLength.result-recording-modes = vector(removeRepeats)
**.**.queue.queueBitLength:vector(removeRepeats).vector-recording = true
**.**.queue.queueingTime:vector.vector-recording = true
**.scalar-recording = false
**.vector-recording = false
**.bin-recording = false

**.tcp.typename = "MpOrb"
**.tcp.tcpAlgorithmClass = "MpOrbUncoupled"
# ORBCC needs IntQueue on the forward bottlenecks to append INT queue telemetry.
# Keep these before the broad DropTail fallback: earlier matching lines have priority in these ini files.
**.router1a.ppp[1].queue.typename = "IntQueue"
**.router1b.ppp[1].queue.typename = "IntQueue"
**.ppp[*].queue.typename = "DropTailQueue"
**.ppp[*].queue.dropperClass = "inet::queueing::PacketAtCollectionEndDropper"
**.additiveIncreasePercent = 0.05
**.eta = 0.95
**.alpha = 0.01
**.fixedAvgRTTVal = 0

[Config MpOrbDefault_20ms_Run1]
extends = General
description = "MPORB/ORBCC, default scheduler, variable path 20 ms RTT, run 1."
seed-set = 1
**.schedulerMode = "default"
**.variablePathRtt = 20ms
*.client[0].app[0].tOpen = 2.242285s
*.client[0].app[0].tSend = 2.242285s
# Queue = BDP of the higher-RTT path for this config.
**.ppp[*].queue.packetCapacity = 173
*.scenarioManager.script = xmldoc("../scenarios/experiment1/20ms.xml")
output-vector-file = "results/MpOrbDefault_20ms_Run1-#0.vec"
output-scalar-file = "results/MpOrbDefault_20ms_Run1-#0.sca"

[Config MpOrbDefault_20ms_Run2]
extends = General
description = "MPORB/ORBCC, default scheduler, variable path 20 ms RTT, run 2."
seed-set = 2
**.schedulerMode = "default"
**.variablePathRtt = 20ms
*.client[0].app[0].tOpen = 2.932159s
*.client[0].app[0].tSend = 2.932159s
# Queue = BDP of the higher-RTT path for this config.
**.ppp[*].queue.packetCapacity = 173
*.scenarioManager.script = xmldoc("../scenarios/experiment1/20ms.xml")
output-vector-file = "results/MpOrbDefault_20ms_Run2-#0.vec"
output-scalar-file = "results/MpOrbDefault_20ms_Run2-#0.sca"

[Config MpOrbDefault_20ms_Run3]
extends = General
description = "MPORB/ORBCC, default scheduler, variable path 20 ms RTT, run 3."
seed-set = 3
**.schedulerMode = "default"
**.variablePathRtt = 20ms
*.client[0].app[0].tOpen = 3.637456s
*.client[0].app[0].tSend = 3.637456s
# Queue = BDP of the higher-RTT path for this config.
**.ppp[*].queue.packetCapacity = 173
*.scenarioManager.script = xmldoc("../scenarios/experiment1/20ms.xml")
output-vector-file = "results/MpOrbDefault_20ms_Run3-#0.vec"
output-scalar-file = "results/MpOrbDefault_20ms_Run3-#0.sca"

[Config MpOrbDefault_20ms_Run4]
extends = General
description = "MPORB/ORBCC, default scheduler, variable path 20 ms RTT, run 4."
seed-set = 4
**.schedulerMode = "default"
**.variablePathRtt = 20ms
*.client[0].app[0].tOpen = 0.563819s
*.client[0].app[0].tSend = 0.563819s
# Queue = BDP of the higher-RTT path for this config.
**.ppp[*].queue.packetCapacity = 173
*.scenarioManager.script = xmldoc("../scenarios/experiment1/20ms.xml")
output-vector-file = "results/MpOrbDefault_20ms_Run4-#0.vec"
output-scalar-file = "results/MpOrbDefault_20ms_Run4-#0.sca"

[Config MpOrbDefault_20ms_Run5]
extends = General
description = "MPORB/ORBCC, default scheduler, variable path 20 ms RTT, run 5."
seed-set = 5
**.schedulerMode = "default"
**.variablePathRtt = 20ms
*.client[0].app[0].tOpen = 2.622728s
*.client[0].app[0].tSend = 2.622728s
# Queue = BDP of the higher-RTT path for this config.
**.ppp[*].queue.packetCapacity = 173
*.scenarioManager.script = xmldoc("../scenarios/experiment1/20ms.xml")
output-vector-file = "results/MpOrbDefault_20ms_Run5-#0.vec"
output-scalar-file = "results/MpOrbDefault_20ms_Run5-#0.sca"

[Config MpOrbDefault_40ms_Run1]
extends = General
description = "MPORB/ORBCC, default scheduler, variable path 40 ms RTT, run 1."
seed-set = 1
**.schedulerMode = "default"
**.variablePathRtt = 40ms
*.client[0].app[0].tOpen = 2.242285s
*.client[0].app[0].tSend = 2.242285s
# Queue = BDP of the higher-RTT path for this config.
**.ppp[*].queue.packetCapacity = 346
*.scenarioManager.script = xmldoc("../scenarios/experiment1/40ms.xml")
output-vector-file = "results/MpOrbDefault_40ms_Run1-#0.vec"
output-scalar-file = "results/MpOrbDefault_40ms_Run1-#0.sca"

[Config MpOrbDefault_40ms_Run2]
extends = General
description = "MPORB/ORBCC, default scheduler, variable path 40 ms RTT, run 2."
seed-set = 2
**.schedulerMode = "default"
**.variablePathRtt = 40ms
*.client[0].app[0].tOpen = 2.932159s
*.client[0].app[0].tSend = 2.932159s
# Queue = BDP of the higher-RTT path for this config.
**.ppp[*].queue.packetCapacity = 346
*.scenarioManager.script = xmldoc("../scenarios/experiment1/40ms.xml")
output-vector-file = "results/MpOrbDefault_40ms_Run2-#0.vec"
output-scalar-file = "results/MpOrbDefault_40ms_Run2-#0.sca"

[Config MpOrbDefault_40ms_Run3]
extends = General
description = "MPORB/ORBCC, default scheduler, variable path 40 ms RTT, run 3."
seed-set = 3
**.schedulerMode = "default"
**.variablePathRtt = 40ms
*.client[0].app[0].tOpen = 3.637456s
*.client[0].app[0].tSend = 3.637456s
# Queue = BDP of the higher-RTT path for this config.
**.ppp[*].queue.packetCapacity = 346
*.scenarioManager.script = xmldoc("../scenarios/experiment1/40ms.xml")
output-vector-file = "results/MpOrbDefault_40ms_Run3-#0.vec"
output-scalar-file = "results/MpOrbDefault_40ms_Run3-#0.sca"

[Config MpOrbDefault_40ms_Run4]
extends = General
description = "MPORB/ORBCC, default scheduler, variable path 40 ms RTT, run 4."
seed-set = 4
**.schedulerMode = "default"
**.variablePathRtt = 40ms
*.client[0].app[0].tOpen = 0.563819s
*.client[0].app[0].tSend = 0.563819s
# Queue = BDP of the higher-RTT path for this config.
**.ppp[*].queue.packetCapacity = 346
*.scenarioManager.script = xmldoc("../scenarios/experiment1/40ms.xml")
output-vector-file = "results/MpOrbDefault_40ms_Run4-#0.vec"
output-scalar-file = "results/MpOrbDefault_40ms_Run4-#0.sca"

[Config MpOrbDefault_40ms_Run5]
extends = General
description = "MPORB/ORBCC, default scheduler, variable path 40 ms RTT, run 5."
seed-set = 5
**.schedulerMode = "default"
**.variablePathRtt = 40ms
*.client[0].app[0].tOpen = 2.622728s
*.client[0].app[0].tSend = 2.622728s
# Queue = BDP of the higher-RTT path for this config.
**.ppp[*].queue.packetCapacity = 346
*.scenarioManager.script = xmldoc("../scenarios/experiment1/40ms.xml")
output-vector-file = "results/MpOrbDefault_40ms_Run5-#0.vec"
output-scalar-file = "results/MpOrbDefault_40ms_Run5-#0.sca"

[Config MpOrbDefault_60ms_Run1]
extends = General
description = "MPORB/ORBCC, default scheduler, variable path 60 ms RTT, run 1."
seed-set = 1
**.schedulerMode = "default"
**.variablePathRtt = 60ms
*.client[0].app[0].tOpen = 2.242285s
*.client[0].app[0].tSend = 2.242285s
# Queue = BDP of the higher-RTT path for this config.
**.ppp[*].queue.packetCapacity = 518
*.scenarioManager.script = xmldoc("../scenarios/experiment1/60ms.xml")
output-vector-file = "results/MpOrbDefault_60ms_Run1-#0.vec"
output-scalar-file = "results/MpOrbDefault_60ms_Run1-#0.sca"

[Config MpOrbDefault_60ms_Run2]
extends = General
description = "MPORB/ORBCC, default scheduler, variable path 60 ms RTT, run 2."
seed-set = 2
**.schedulerMode = "default"
**.variablePathRtt = 60ms
*.client[0].app[0].tOpen = 2.932159s
*.client[0].app[0].tSend = 2.932159s
# Queue = BDP of the higher-RTT path for this config.
**.ppp[*].queue.packetCapacity = 518
*.scenarioManager.script = xmldoc("../scenarios/experiment1/60ms.xml")
output-vector-file = "results/MpOrbDefault_60ms_Run2-#0.vec"
output-scalar-file = "results/MpOrbDefault_60ms_Run2-#0.sca"

[Config MpOrbDefault_60ms_Run3]
extends = General
description = "MPORB/ORBCC, default scheduler, variable path 60 ms RTT, run 3."
seed-set = 3
**.schedulerMode = "default"
**.variablePathRtt = 60ms
*.client[0].app[0].tOpen = 3.637456s
*.client[0].app[0].tSend = 3.637456s
# Queue = BDP of the higher-RTT path for this config.
**.ppp[*].queue.packetCapacity = 518
*.scenarioManager.script = xmldoc("../scenarios/experiment1/60ms.xml")
output-vector-file = "results/MpOrbDefault_60ms_Run3-#0.vec"
output-scalar-file = "results/MpOrbDefault_60ms_Run3-#0.sca"

[Config MpOrbDefault_60ms_Run4]
extends = General
description = "MPORB/ORBCC, default scheduler, variable path 60 ms RTT, run 4."
seed-set = 4
**.schedulerMode = "default"
**.variablePathRtt = 60ms
*.client[0].app[0].tOpen = 0.563819s
*.client[0].app[0].tSend = 0.563819s
# Queue = BDP of the higher-RTT path for this config.
**.ppp[*].queue.packetCapacity = 518
*.scenarioManager.script = xmldoc("../scenarios/experiment1/60ms.xml")
output-vector-file = "results/MpOrbDefault_60ms_Run4-#0.vec"
output-scalar-file = "results/MpOrbDefault_60ms_Run4-#0.sca"

[Config MpOrbDefault_60ms_Run5]
extends = General
description = "MPORB/ORBCC, default scheduler, variable path 60 ms RTT, run 5."
seed-set = 5
**.schedulerMode = "default"
**.variablePathRtt = 60ms
*.client[0].app[0].tOpen = 2.622728s
*.client[0].app[0].tSend = 2.622728s
# Queue = BDP of the higher-RTT path for this config.
**.ppp[*].queue.packetCapacity = 518
*.scenarioManager.script = xmldoc("../scenarios/experiment1/60ms.xml")
output-vector-file = "results/MpOrbDefault_60ms_Run5-#0.vec"
output-scalar-file = "results/MpOrbDefault_60ms_Run5-#0.sca"

[Config MpOrbDefault_80ms_Run1]
extends = General
description = "MPORB/ORBCC, default scheduler, variable path 80 ms RTT, run 1."
seed-set = 1
**.schedulerMode = "default"
**.variablePathRtt = 80ms
*.client[0].app[0].tOpen = 2.242285s
*.client[0].app[0].tSend = 2.242285s
# Queue = BDP of the higher-RTT path for this config.
**.ppp[*].queue.packetCapacity = 691
*.scenarioManager.script = xmldoc("../scenarios/experiment1/80ms.xml")
output-vector-file = "results/MpOrbDefault_80ms_Run1-#0.vec"
output-scalar-file = "results/MpOrbDefault_80ms_Run1-#0.sca"

[Config MpOrbDefault_80ms_Run2]
extends = General
description = "MPORB/ORBCC, default scheduler, variable path 80 ms RTT, run 2."
seed-set = 2
**.schedulerMode = "default"
**.variablePathRtt = 80ms
*.client[0].app[0].tOpen = 2.932159s
*.client[0].app[0].tSend = 2.932159s
# Queue = BDP of the higher-RTT path for this config.
**.ppp[*].queue.packetCapacity = 691
*.scenarioManager.script = xmldoc("../scenarios/experiment1/80ms.xml")
output-vector-file = "results/MpOrbDefault_80ms_Run2-#0.vec"
output-scalar-file = "results/MpOrbDefault_80ms_Run2-#0.sca"

[Config MpOrbDefault_80ms_Run3]
extends = General
description = "MPORB/ORBCC, default scheduler, variable path 80 ms RTT, run 3."
seed-set = 3
**.schedulerMode = "default"
**.variablePathRtt = 80ms
*.client[0].app[0].tOpen = 3.637456s
*.client[0].app[0].tSend = 3.637456s
# Queue = BDP of the higher-RTT path for this config.
**.ppp[*].queue.packetCapacity = 691
*.scenarioManager.script = xmldoc("../scenarios/experiment1/80ms.xml")
output-vector-file = "results/MpOrbDefault_80ms_Run3-#0.vec"
output-scalar-file = "results/MpOrbDefault_80ms_Run3-#0.sca"

[Config MpOrbDefault_80ms_Run4]
extends = General
description = "MPORB/ORBCC, default scheduler, variable path 80 ms RTT, run 4."
seed-set = 4
**.schedulerMode = "default"
**.variablePathRtt = 80ms
*.client[0].app[0].tOpen = 0.563819s
*.client[0].app[0].tSend = 0.563819s
# Queue = BDP of the higher-RTT path for this config.
**.ppp[*].queue.packetCapacity = 691
*.scenarioManager.script = xmldoc("../scenarios/experiment1/80ms.xml")
output-vector-file = "results/MpOrbDefault_80ms_Run4-#0.vec"
output-scalar-file = "results/MpOrbDefault_80ms_Run4-#0.sca"

[Config MpOrbDefault_80ms_Run5]
extends = General
description = "MPORB/ORBCC, default scheduler, variable path 80 ms RTT, run 5."
seed-set = 5
**.schedulerMode = "default"
**.variablePathRtt = 80ms
*.client[0].app[0].tOpen = 2.622728s
*.client[0].app[0].tSend = 2.622728s
# Queue = BDP of the higher-RTT path for this config.
**.ppp[*].queue.packetCapacity = 691
*.scenarioManager.script = xmldoc("../scenarios/experiment1/80ms.xml")
output-vector-file = "results/MpOrbDefault_80ms_Run5-#0.vec"
output-scalar-file = "results/MpOrbDefault_80ms_Run5-#0.sca"

[Config MpOrbDefault_100ms_Run1]
extends = General
description = "MPORB/ORBCC, default scheduler, variable path 100 ms RTT, run 1."
seed-set = 1
**.schedulerMode = "default"
**.variablePathRtt = 100ms
*.client[0].app[0].tOpen = 2.242285s
*.client[0].app[0].tSend = 2.242285s
# Queue = BDP of the higher-RTT path for this config.
**.ppp[*].queue.packetCapacity = 864
*.scenarioManager.script = xmldoc("../scenarios/experiment1/100ms.xml")
output-vector-file = "results/MpOrbDefault_100ms_Run1-#0.vec"
output-scalar-file = "results/MpOrbDefault_100ms_Run1-#0.sca"

[Config MpOrbDefault_100ms_Run2]
extends = General
description = "MPORB/ORBCC, default scheduler, variable path 100 ms RTT, run 2."
seed-set = 2
**.schedulerMode = "default"
**.variablePathRtt = 100ms
*.client[0].app[0].tOpen = 2.932159s
*.client[0].app[0].tSend = 2.932159s
# Queue = BDP of the higher-RTT path for this config.
**.ppp[*].queue.packetCapacity = 864
*.scenarioManager.script = xmldoc("../scenarios/experiment1/100ms.xml")
output-vector-file = "results/MpOrbDefault_100ms_Run2-#0.vec"
output-scalar-file = "results/MpOrbDefault_100ms_Run2-#0.sca"

[Config MpOrbDefault_100ms_Run3]
extends = General
description = "MPORB/ORBCC, default scheduler, variable path 100 ms RTT, run 3."
seed-set = 3
**.schedulerMode = "default"
**.variablePathRtt = 100ms
*.client[0].app[0].tOpen = 3.637456s
*.client[0].app[0].tSend = 3.637456s
# Queue = BDP of the higher-RTT path for this config.
**.ppp[*].queue.packetCapacity = 864
*.scenarioManager.script = xmldoc("../scenarios/experiment1/100ms.xml")
output-vector-file = "results/MpOrbDefault_100ms_Run3-#0.vec"
output-scalar-file = "results/MpOrbDefault_100ms_Run3-#0.sca"

[Config MpOrbDefault_100ms_Run4]
extends = General
description = "MPORB/ORBCC, default scheduler, variable path 100 ms RTT, run 4."
seed-set = 4
**.schedulerMode = "default"
**.variablePathRtt = 100ms
*.client[0].app[0].tOpen = 0.563819s
*.client[0].app[0].tSend = 0.563819s
# Queue = BDP of the higher-RTT path for this config.
**.ppp[*].queue.packetCapacity = 864
*.scenarioManager.script = xmldoc("../scenarios/experiment1/100ms.xml")
output-vector-file = "results/MpOrbDefault_100ms_Run4-#0.vec"
output-scalar-file = "results/MpOrbDefault_100ms_Run4-#0.sca"

[Config MpOrbDefault_100ms_Run5]
extends = General
description = "MPORB/ORBCC, default scheduler, variable path 100 ms RTT, run 5."
seed-set = 5
**.schedulerMode = "default"
**.variablePathRtt = 100ms
*.client[0].app[0].tOpen = 2.622728s
*.client[0].app[0].tSend = 2.622728s
# Queue = BDP of the higher-RTT path for this config.
**.ppp[*].queue.packetCapacity = 864
*.scenarioManager.script = xmldoc("../scenarios/experiment1/100ms.xml")
output-vector-file = "results/MpOrbDefault_100ms_Run5-#0.vec"
output-scalar-file = "results/MpOrbDefault_100ms_Run5-#0.sca"

[Config MpOrbDefault_120ms_Run1]
extends = General
description = "MPORB/ORBCC, default scheduler, variable path 120 ms RTT, run 1."
seed-set = 1
**.schedulerMode = "default"
**.variablePathRtt = 120ms
*.client[0].app[0].tOpen = 2.242285s
*.client[0].app[0].tSend = 2.242285s
# Queue = BDP of the higher-RTT path for this config.
**.ppp[*].queue.packetCapacity = 1036
*.scenarioManager.script = xmldoc("../scenarios/experiment1/120ms.xml")
output-vector-file = "results/MpOrbDefault_120ms_Run1-#0.vec"
output-scalar-file = "results/MpOrbDefault_120ms_Run1-#0.sca"

[Config MpOrbDefault_120ms_Run2]
extends = General
description = "MPORB/ORBCC, default scheduler, variable path 120 ms RTT, run 2."
seed-set = 2
**.schedulerMode = "default"
**.variablePathRtt = 120ms
*.client[0].app[0].tOpen = 2.932159s
*.client[0].app[0].tSend = 2.932159s
# Queue = BDP of the higher-RTT path for this config.
**.ppp[*].queue.packetCapacity = 1036
*.scenarioManager.script = xmldoc("../scenarios/experiment1/120ms.xml")
output-vector-file = "results/MpOrbDefault_120ms_Run2-#0.vec"
output-scalar-file = "results/MpOrbDefault_120ms_Run2-#0.sca"

[Config MpOrbDefault_120ms_Run3]
extends = General
description = "MPORB/ORBCC, default scheduler, variable path 120 ms RTT, run 3."
seed-set = 3
**.schedulerMode = "default"
**.variablePathRtt = 120ms
*.client[0].app[0].tOpen = 3.637456s
*.client[0].app[0].tSend = 3.637456s
# Queue = BDP of the higher-RTT path for this config.
**.ppp[*].queue.packetCapacity = 1036
*.scenarioManager.script = xmldoc("../scenarios/experiment1/120ms.xml")
output-vector-file = "results/MpOrbDefault_120ms_Run3-#0.vec"
output-scalar-file = "results/MpOrbDefault_120ms_Run3-#0.sca"

[Config MpOrbDefault_120ms_Run4]
extends = General
description = "MPORB/ORBCC, default scheduler, variable path 120 ms RTT, run 4."
seed-set = 4
**.schedulerMode = "default"
**.variablePathRtt = 120ms
*.client[0].app[0].tOpen = 0.563819s
*.client[0].app[0].tSend = 0.563819s
# Queue = BDP of the higher-RTT path for this config.
**.ppp[*].queue.packetCapacity = 1036
*.scenarioManager.script = xmldoc("../scenarios/experiment1/120ms.xml")
output-vector-file = "results/MpOrbDefault_120ms_Run4-#0.vec"
output-scalar-file = "results/MpOrbDefault_120ms_Run4-#0.sca"

[Config MpOrbDefault_120ms_Run5]
extends = General
description = "MPORB/ORBCC, default scheduler, variable path 120 ms RTT, run 5."
seed-set = 5
**.schedulerMode = "default"
**.variablePathRtt = 120ms
*.client[0].app[0].tOpen = 2.622728s
*.client[0].app[0].tSend = 2.622728s
# Queue = BDP of the higher-RTT path for this config.
**.ppp[*].queue.packetCapacity = 1036
*.scenarioManager.script = xmldoc("../scenarios/experiment1/120ms.xml")
output-vector-file = "results/MpOrbDefault_120ms_Run5-#0.vec"
output-scalar-file = "results/MpOrbDefault_120ms_Run5-#0.sca"

[Config MpOrbDefault_140ms_Run1]
extends = General
description = "MPORB/ORBCC, default scheduler, variable path 140 ms RTT, run 1."
seed-set = 1
**.schedulerMode = "default"
**.variablePathRtt = 140ms
*.client[0].app[0].tOpen = 2.242285s
*.client[0].app[0].tSend = 2.242285s
# Queue = BDP of the higher-RTT path for this config.
**.ppp[*].queue.packetCapacity = 1209
*.scenarioManager.script = xmldoc("../scenarios/experiment1/140ms.xml")
output-vector-file = "results/MpOrbDefault_140ms_Run1-#0.vec"
output-scalar-file = "results/MpOrbDefault_140ms_Run1-#0.sca"

[Config MpOrbDefault_140ms_Run2]
extends = General
description = "MPORB/ORBCC, default scheduler, variable path 140 ms RTT, run 2."
seed-set = 2
**.schedulerMode = "default"
**.variablePathRtt = 140ms
*.client[0].app[0].tOpen = 2.932159s
*.client[0].app[0].tSend = 2.932159s
# Queue = BDP of the higher-RTT path for this config.
**.ppp[*].queue.packetCapacity = 1209
*.scenarioManager.script = xmldoc("../scenarios/experiment1/140ms.xml")
output-vector-file = "results/MpOrbDefault_140ms_Run2-#0.vec"
output-scalar-file = "results/MpOrbDefault_140ms_Run2-#0.sca"

[Config MpOrbDefault_140ms_Run3]
extends = General
description = "MPORB/ORBCC, default scheduler, variable path 140 ms RTT, run 3."
seed-set = 3
**.schedulerMode = "default"
**.variablePathRtt = 140ms
*.client[0].app[0].tOpen = 3.637456s
*.client[0].app[0].tSend = 3.637456s
# Queue = BDP of the higher-RTT path for this config.
**.ppp[*].queue.packetCapacity = 1209
*.scenarioManager.script = xmldoc("../scenarios/experiment1/140ms.xml")
output-vector-file = "results/MpOrbDefault_140ms_Run3-#0.vec"
output-scalar-file = "results/MpOrbDefault_140ms_Run3-#0.sca"

[Config MpOrbDefault_140ms_Run4]
extends = General
description = "MPORB/ORBCC, default scheduler, variable path 140 ms RTT, run 4."
seed-set = 4
**.schedulerMode = "default"
**.variablePathRtt = 140ms
*.client[0].app[0].tOpen = 0.563819s
*.client[0].app[0].tSend = 0.563819s
# Queue = BDP of the higher-RTT path for this config.
**.ppp[*].queue.packetCapacity = 1209
*.scenarioManager.script = xmldoc("../scenarios/experiment1/140ms.xml")
output-vector-file = "results/MpOrbDefault_140ms_Run4-#0.vec"
output-scalar-file = "results/MpOrbDefault_140ms_Run4-#0.sca"

[Config MpOrbDefault_140ms_Run5]
extends = General
description = "MPORB/ORBCC, default scheduler, variable path 140 ms RTT, run 5."
seed-set = 5
**.schedulerMode = "default"
**.variablePathRtt = 140ms
*.client[0].app[0].tOpen = 2.622728s
*.client[0].app[0].tSend = 2.622728s
# Queue = BDP of the higher-RTT path for this config.
**.ppp[*].queue.packetCapacity = 1209
*.scenarioManager.script = xmldoc("../scenarios/experiment1/140ms.xml")
output-vector-file = "results/MpOrbDefault_140ms_Run5-#0.vec"
output-scalar-file = "results/MpOrbDefault_140ms_Run5-#0.sca"

[Config MpOrbDefault_160ms_Run1]
extends = General
description = "MPORB/ORBCC, default scheduler, variable path 160 ms RTT, run 1."
seed-set = 1
**.schedulerMode = "default"
**.variablePathRtt = 160ms
*.client[0].app[0].tOpen = 2.242285s
*.client[0].app[0].tSend = 2.242285s
# Queue = BDP of the higher-RTT path for this config.
**.ppp[*].queue.packetCapacity = 1382
*.scenarioManager.script = xmldoc("../scenarios/experiment1/160ms.xml")
output-vector-file = "results/MpOrbDefault_160ms_Run1-#0.vec"
output-scalar-file = "results/MpOrbDefault_160ms_Run1-#0.sca"

[Config MpOrbDefault_160ms_Run2]
extends = General
description = "MPORB/ORBCC, default scheduler, variable path 160 ms RTT, run 2."
seed-set = 2
**.schedulerMode = "default"
**.variablePathRtt = 160ms
*.client[0].app[0].tOpen = 2.932159s
*.client[0].app[0].tSend = 2.932159s
# Queue = BDP of the higher-RTT path for this config.
**.ppp[*].queue.packetCapacity = 1382
*.scenarioManager.script = xmldoc("../scenarios/experiment1/160ms.xml")
output-vector-file = "results/MpOrbDefault_160ms_Run2-#0.vec"
output-scalar-file = "results/MpOrbDefault_160ms_Run2-#0.sca"

[Config MpOrbDefault_160ms_Run3]
extends = General
description = "MPORB/ORBCC, default scheduler, variable path 160 ms RTT, run 3."
seed-set = 3
**.schedulerMode = "default"
**.variablePathRtt = 160ms
*.client[0].app[0].tOpen = 3.637456s
*.client[0].app[0].tSend = 3.637456s
# Queue = BDP of the higher-RTT path for this config.
**.ppp[*].queue.packetCapacity = 1382
*.scenarioManager.script = xmldoc("../scenarios/experiment1/160ms.xml")
output-vector-file = "results/MpOrbDefault_160ms_Run3-#0.vec"
output-scalar-file = "results/MpOrbDefault_160ms_Run3-#0.sca"

[Config MpOrbDefault_160ms_Run4]
extends = General
description = "MPORB/ORBCC, default scheduler, variable path 160 ms RTT, run 4."
seed-set = 4
**.schedulerMode = "default"
**.variablePathRtt = 160ms
*.client[0].app[0].tOpen = 0.563819s
*.client[0].app[0].tSend = 0.563819s
# Queue = BDP of the higher-RTT path for this config.
**.ppp[*].queue.packetCapacity = 1382
*.scenarioManager.script = xmldoc("../scenarios/experiment1/160ms.xml")
output-vector-file = "results/MpOrbDefault_160ms_Run4-#0.vec"
output-scalar-file = "results/MpOrbDefault_160ms_Run4-#0.sca"

[Config MpOrbDefault_160ms_Run5]
extends = General
description = "MPORB/ORBCC, default scheduler, variable path 160 ms RTT, run 5."
seed-set = 5
**.schedulerMode = "default"
**.variablePathRtt = 160ms
*.client[0].app[0].tOpen = 2.622728s
*.client[0].app[0].tSend = 2.622728s
# Queue = BDP of the higher-RTT path for this config.
**.ppp[*].queue.packetCapacity = 1382
*.scenarioManager.script = xmldoc("../scenarios/experiment1/160ms.xml")
output-vector-file = "results/MpOrbDefault_160ms_Run5-#0.vec"
output-scalar-file = "results/MpOrbDefault_160ms_Run5-#0.sca"

[Config MpOrbDefault_180ms_Run1]
extends = General
description = "MPORB/ORBCC, default scheduler, variable path 180 ms RTT, run 1."
seed-set = 1
**.schedulerMode = "default"
**.variablePathRtt = 180ms
*.client[0].app[0].tOpen = 2.242285s
*.client[0].app[0].tSend = 2.242285s
# Queue = BDP of the higher-RTT path for this config.
**.ppp[*].queue.packetCapacity = 1554
*.scenarioManager.script = xmldoc("../scenarios/experiment1/180ms.xml")
output-vector-file = "results/MpOrbDefault_180ms_Run1-#0.vec"
output-scalar-file = "results/MpOrbDefault_180ms_Run1-#0.sca"

[Config MpOrbDefault_180ms_Run2]
extends = General
description = "MPORB/ORBCC, default scheduler, variable path 180 ms RTT, run 2."
seed-set = 2
**.schedulerMode = "default"
**.variablePathRtt = 180ms
*.client[0].app[0].tOpen = 2.932159s
*.client[0].app[0].tSend = 2.932159s
# Queue = BDP of the higher-RTT path for this config.
**.ppp[*].queue.packetCapacity = 1554
*.scenarioManager.script = xmldoc("../scenarios/experiment1/180ms.xml")
output-vector-file = "results/MpOrbDefault_180ms_Run2-#0.vec"
output-scalar-file = "results/MpOrbDefault_180ms_Run2-#0.sca"

[Config MpOrbDefault_180ms_Run3]
extends = General
description = "MPORB/ORBCC, default scheduler, variable path 180 ms RTT, run 3."
seed-set = 3
**.schedulerMode = "default"
**.variablePathRtt = 180ms
*.client[0].app[0].tOpen = 3.637456s
*.client[0].app[0].tSend = 3.637456s
# Queue = BDP of the higher-RTT path for this config.
**.ppp[*].queue.packetCapacity = 1554
*.scenarioManager.script = xmldoc("../scenarios/experiment1/180ms.xml")
output-vector-file = "results/MpOrbDefault_180ms_Run3-#0.vec"
output-scalar-file = "results/MpOrbDefault_180ms_Run3-#0.sca"

[Config MpOrbDefault_180ms_Run4]
extends = General
description = "MPORB/ORBCC, default scheduler, variable path 180 ms RTT, run 4."
seed-set = 4
**.schedulerMode = "default"
**.variablePathRtt = 180ms
*.client[0].app[0].tOpen = 0.563819s
*.client[0].app[0].tSend = 0.563819s
# Queue = BDP of the higher-RTT path for this config.
**.ppp[*].queue.packetCapacity = 1554
*.scenarioManager.script = xmldoc("../scenarios/experiment1/180ms.xml")
output-vector-file = "results/MpOrbDefault_180ms_Run4-#0.vec"
output-scalar-file = "results/MpOrbDefault_180ms_Run4-#0.sca"

[Config MpOrbDefault_180ms_Run5]