[General]
ned-path = ../..:../../../src:../../../../mptcp/simulations:../../../../mptcp/src:../../../../mporb/simulations:../../../../mporb/src:../../../../orbtcp/simulations:../../../../orbtcp/src:../../../../cubic/simulations:../../../../cubic/src:../../../../tcpPaced/simulations:../../../../tcpPaced/src:../../../../tcpGoodputApplications/simulations:../../../../tcpGoodputApplications/src:../../../../inet4.5/examples:../../../../inet4.5/showcases:../../../../inet4.5/src:../../../../inet4.5/tests/validation:../../../../inet4.5/tests/networks:../../../../inet4.5/tutorials

network = mptcpexperiments.simulations.experiments.experiment4.baliaresponsiveness
sim-time-limit = 200s
record-eventlog = false
cmdenv-express-mode = true
cmdenv-event-banners = false
cmdenv-redirect-output = false
cmdenv-output-file = experiment4Log.txt
cmdenv-log-prefix = %t | %m |
**.cmdenv-log-level = off

# BALIA responsiveness test: two fixed 20 Mbps, 20 ms paths.
# Five one-subflow connections using the tested CC join path 2 together at 40 s, then stop admitting new data at 80 s.
# Every queue uses the highest path BDP: 35 packets at MSS 1448.
*.backgroundClient[*].app[0].numberOfSubflows = 1
*.backgroundServer[*].app[0].numberOfSubflows = 1
*.backgroundClient[*].tcp.conn-*.numberOfSubflows = 1
*.backgroundServer[*].tcp.conn-*.numberOfSubflows = 1
*.backgroundClient[*].tcp.initialSsthresh = 40000
**.numberOfSubflows = 2
**.startAllSubflowsAtBeginning = true
**.subflowStartTimes = ""
*.configurator.config = xml("<config><interface hosts='**' address='10.x.x.x' netmask='255.x.x.x'/><autoroute metric='delay'/></config>")
*.configurator.addDefaultRoutes = false
*.configurator.addSubnetRoutes = false
*.configurator.optimizeRoutes = false
*.scenarioManager.script = xmldoc("../scenarios/experiment4/conditions.xml")

*.client[0].numApps = 1
*.client[0].app[0].typename = "MpTcpSessionApp"
*.client[0].app[0].connectAddress = "server[0]"
*.client[0].tcp.subflowRemoteAddresses = "server[0]>p1Egress server[0]>p2Egress"
*.client[0].app[0].tOpen = 0.1s
*.client[0].app[0].tSend = 0.1s
*.client[0].app[0].tClose = -1s
*.client[0].app[0].sendBytes = 2GB
*.client[0].app[0].dataTransferMode = "bytecount"

*.server[0].numApps = 1
*.server[0].app[0].typename = "MpTcpSinkApp"
*.server[0].app[0].serverThreadModuleType = "tcpgoodputapplications.applications.tcpapp.TcpGoodputSinkAppThread"

*.backgroundClient[*].numApps = 1
*.backgroundClient[*].app[0].typename = "MpTcpSessionApp"
*.backgroundClient[*].app[0].connectPort = 1000
*.backgroundClient[*].app[0].tClose = -1s
*.backgroundClient[*].app[0].sendBytes = 2GB
*.backgroundClient[*].app[0].dataTransferMode = "bytecount"
*.backgroundClient[0].app[0].connectAddress = "backgroundServer[0]"
*.backgroundClient[1].app[0].connectAddress = "backgroundServer[1]"
*.backgroundClient[2].app[0].connectAddress = "backgroundServer[2]"
*.backgroundClient[3].app[0].connectAddress = "backgroundServer[3]"
*.backgroundClient[4].app[0].connectAddress = "backgroundServer[4]"

*.backgroundServer[*].numApps = 1
*.backgroundServer[*].app[0].typename = "MpTcpSinkApp"
*.backgroundServer[*].app[0].localPort = 1000
*.backgroundServer[*].app[0].serverThreadModuleType = "tcpgoodputapplications.applications.tcpapp.TcpGoodputSinkAppThread"

**.tcp.advertisedWindow = 200000000
**.tcp.windowScalingSupport = true
**.tcp.windowScalingFactor = -1
**.tcp.increasedIWEnabled = true
**.tcp.delayedAcksEnabled = false
**.tcp.timestampSupport = true
**.tcp.ecnWillingness = false
**.tcp.nagleEnabled = true
**.tcp.stopOperationTimeout = 4000s
**.tcp.mss = 1448
**.tcp.sackSupport = true
# Exercise the updated SACK scoreboard for every MPTCP subflow.
**.tcp.updatedSackEnabled = true
*.client[0].tcp.sendQueueLimit = 4MiB
*.server[0].tcp.sendQueueLimit = 4MiB
*.client[0].tcp.schedulerMode = "default"
*.server[0].tcp.schedulerMode = "default"

**.goodputInterval = 0.5s
**.throughputInterval = 0.5s
**.**.tcp.conn-temp.**.statistic-recording = false
**.**.goodput.statistic-recording = true
**.**.goodput:vector(removeRepeats).vector-recording = true
**.**.goodput.result-recording-modes = vector(removeRepeats)
**.**.tcp.conn-*.throughput.statistic-recording = true
**.**.tcp.conn-*.cwnd.statistic-recording = true
**.**.tcp.conn-*.cwndLimited.statistic-recording = true
**.**.tcp.conn-*.lossRecovery.statistic-recording = true
**.**.tcp.conn-*.numRtos.statistic-recording = true
**.**.tcp.conn-*.retransmissionRate.statistic-recording = true
**.**.tcp.conn-*.liaAlpha.statistic-recording = true
**.**.tcp.conn-*.oliaEpsilon.statistic-recording = true
**.**.tcp.conn-*.baliaAi.statistic-recording = true
**.**.tcp.conn-*.baliaMd.statistic-recording = true
**.**.tcp.conn-*.semiCoupledAlphaSubflowRate.statistic-recording = true
**.**.tcp.conn-*.semiCoupledAlphaConnectionRate.statistic-recording = true
**.**.tcp.conn-*.semiCoupledAlphaRateShare.statistic-recording = true
**.**.tcp.conn-*.holBlockedBytes.statistic-recording = true
**.**.tcp.conn-*.metaReinjectedBytes.statistic-recording = true
**.**.tcp.conn-*.metaReinjections.statistic-recording = true
**.**.tcp.conn-*.semiCoupledDeltaTargetShare.statistic-recording = true
**.**.tcp.conn-*.semiCoupledDeltaRateShare.statistic-recording = true
**.**.tcp.conn-*.semiCoupledDeltaAiShare.statistic-recording = true
**.**.tcp.conn-*.throughput:vector(removeRepeats).vector-recording = true
**.**.tcp.conn-*.cwnd:vector(removeRepeats).vector-recording = true
**.**.tcp.conn-*.cwndLimited:vector(removeRepeats).vector-recording = true
**.**.tcp.conn-*.lossRecovery:vector(removeRepeats).vector-recording = true
**.**.tcp.conn-*.numRtos:vector(removeRepeats).vector-recording = true
**.**.tcp.conn-*.retransmissionRate:vector(removeRepeats).vector-recording = true
**.**.tcp.conn-*.liaAlpha:vector(removeRepeats).vector-recording = true
**.**.tcp.conn-*.oliaEpsilon:vector(removeRepeats).vector-recording = true
**.**.tcp.conn-*.baliaAi:vector(removeRepeats).vector-recording = true
**.**.tcp.conn-*.baliaMd:vector(removeRepeats).vector-recording = true
**.**.tcp.conn-*.semiCoupledAlphaSubflowRate:vector(removeRepeats).vector-recording = true
**.**.tcp.conn-*.semiCoupledAlphaConnectionRate:vector(removeRepeats).vector-recording = true
**.**.tcp.conn-*.semiCoupledAlphaRateShare:vector(removeRepeats).vector-recording = true
**.**.tcp.conn-*.holBlockedBytes:vector(removeRepeats).vector-recording = true
**.**.tcp.conn-*.metaReinjectedBytes:vector(removeRepeats).vector-recording = true
**.**.tcp.conn-*.metaReinjections:vector(removeRepeats).vector-recording = true
**.**.tcp.conn-*.semiCoupledDeltaTargetShare:vector(removeRepeats).vector-recording = true
**.**.tcp.conn-*.semiCoupledDeltaRateShare:vector(removeRepeats).vector-recording = true
**.**.tcp.conn-*.semiCoupledDeltaAiShare:vector(removeRepeats).vector-recording = true
**.**.tcp.conn-*.**.result-recording-modes = vector(removeRepeats)
**.p1Ingress.ppp[0].queue.queueLength.statistic-recording = true
**.p2Ingress.ppp[0].queue.queueLength.statistic-recording = true
**.p1Ingress.ppp[0].queue.queueLength:vector(removeRepeats).vector-recording = true
**.p2Ingress.ppp[0].queue.queueLength:vector(removeRepeats).vector-recording = true
**.p1Ingress.ppp[0].queue.queueLength.result-recording-modes = vector(removeRepeats)
**.p2Ingress.ppp[0].queue.queueLength.result-recording-modes = vector(removeRepeats)
**.ppp[*].queue.packetCapacity = 35
**.statistic-recording = false
**.scalar-recording = false
**.vector-recording = false
**.bin-recording = false

*.client[0].tcp.typename = "MpTcp"
*.server[0].tcp.typename = "MpTcp"
*.client[0].tcp.tcpAlgorithmClass = "MpTcpBalia"
*.server[0].tcp.tcpAlgorithmClass = "MpTcpBalia"
*.backgroundClient[*].tcp.typename = "MpTcp"
*.backgroundServer[*].tcp.typename = "MpTcp"
*.backgroundClient[*].tcp.tcpAlgorithmClass = "MpTcpBalia"
*.backgroundServer[*].tcp.tcpAlgorithmClass = "MpTcpBalia"
**.ppp[*].queue.typename = "DropTailQueue"
**.ppp[*].queue.dropperClass = "inet::queueing::PacketAtCollectionEndDropper"

[Config BaliaCoupled_Run1]
extends = General
description = "BALIA; BALIA responsiveness test, run 1."
seed-set = 1
*.client[0].app[0].tOpen = 0.542824s
*.client[0].app[0].tSend = 0.542824s
*.backgroundClient[0].app[0].tOpen = 40s
*.backgroundClient[0].app[0].tSend = 40s
*.backgroundClient[1].app[0].tOpen = 40s
*.backgroundClient[1].app[0].tSend = 40s
*.backgroundClient[2].app[0].tOpen = 40s
*.backgroundClient[2].app[0].tSend = 40s
*.backgroundClient[3].app[0].tOpen = 40s
*.backgroundClient[3].app[0].tSend = 40s
*.backgroundClient[4].app[0].tOpen = 40s
*.backgroundClient[4].app[0].tSend = 40s
output-vector-file = "results/BaliaCoupled_Run1-#0.vec"
output-scalar-file = "results/BaliaCoupled_Run1-#0.sca"

[Config BaliaCoupled_Run2]
extends = General
description = "BALIA; BALIA responsiveness test, run 2."
seed-set = 2
*.client[0].app[0].tOpen = 1.183475s
*.client[0].app[0].tSend = 1.183475s
*.backgroundClient[0].app[0].tOpen = 40s
*.backgroundClient[0].app[0].tSend = 40s
*.backgroundClient[1].app[0].tOpen = 40s
*.backgroundClient[1].app[0].tSend = 40s
*.backgroundClient[2].app[0].tOpen = 40s
*.backgroundClient[2].app[0].tSend = 40s
*.backgroundClient[3].app[0].tOpen = 40s
*.backgroundClient[3].app[0].tSend = 40s
*.backgroundClient[4].app[0].tOpen = 40s
*.backgroundClient[4].app[0].tSend = 40s
output-vector-file = "results/BaliaCoupled_Run2-#0.vec"
output-scalar-file = "results/BaliaCoupled_Run2-#0.sca"

[Config BaliaCoupled_Run3]
extends = General
description = "BALIA; BALIA responsiveness test, run 3."
seed-set = 3
*.client[0].app[0].tOpen = 1.311905s
*.client[0].app[0].tSend = 1.311905s
*.backgroundClient[0].app[0].tOpen = 40s
*.backgroundClient[0].app[0].tSend = 40s
*.backgroundClient[1].app[0].tOpen = 40s
*.backgroundClient[1].app[0].tSend = 40s
*.backgroundClient[2].app[0].tOpen = 40s
*.backgroundClient[2].app[0].tSend = 40s
*.backgroundClient[3].app[0].tOpen = 40s
*.backgroundClient[3].app[0].tSend = 40s
*.backgroundClient[4].app[0].tOpen = 40s
*.backgroundClient[4].app[0].tSend = 40s
output-vector-file = "results/BaliaCoupled_Run3-#0.vec"
output-scalar-file = "results/BaliaCoupled_Run3-#0.sca"

[Config BaliaCoupled_Run4]
extends = General
description = "BALIA; BALIA responsiveness test, run 4."
seed-set = 4
*.client[0].app[0].tOpen = 0.403014s
*.client[0].app[0].tSend = 0.403014s
*.backgroundClient[0].app[0].tOpen = 40s
*.backgroundClient[0].app[0].tSend = 40s
*.backgroundClient[1].app[0].tOpen = 40s
*.backgroundClient[1].app[0].tSend = 40s
*.backgroundClient[2].app[0].tOpen = 40s
*.backgroundClient[2].app[0].tSend = 40s
*.backgroundClient[3].app[0].tOpen = 40s
*.backgroundClient[3].app[0].tSend = 40s
*.backgroundClient[4].app[0].tOpen = 40s
*.backgroundClient[4].app[0].tSend = 40s
output-vector-file = "results/BaliaCoupled_Run4-#0.vec"
output-scalar-file = "results/BaliaCoupled_Run4-#0.sca"

[Config BaliaCoupled_Run5]
extends = General
description = "BALIA; BALIA responsiveness test, run 5."
seed-set = 5
*.client[0].app[0].tOpen = 0.726515s
*.client[0].app[0].tSend = 0.726515s
*.backgroundClient[0].app[0].tOpen = 40s
*.backgroundClient[0].app[0].tSend = 40s
*.backgroundClient[1].app[0].tOpen = 40s
*.backgroundClient[1].app[0].tSend = 40s
*.backgroundClient[2].app[0].tOpen = 40s
*.backgroundClient[2].app[0].tSend = 40s
*.backgroundClient[3].app[0].tOpen = 40s
*.backgroundClient[3].app[0].tSend = 40s
*.backgroundClient[4].app[0].tOpen = 40s
*.backgroundClient[4].app[0].tSend = 40s
output-vector-file = "results/BaliaCoupled_Run5-#0.vec"
output-scalar-file = "results/BaliaCoupled_Run5-#0.sca"

