[General]
ned-path = ../..:../../../src:../../../../mptcp/simulations:../../../../mptcp/src:../../../../mporb/simulations:../../../../mporb/src:../../../../orbtcp/simulations:../../../../orbtcp/src:../../../../cubic/simulations:../../../../cubic/src:../../../../tcpPaced/simulations:../../../../tcpPaced/src:../../../../tcpGoodputApplications/simulations:../../../../tcpGoodputApplications/src:../../../../inet4.5/examples:../../../../inet4.5/showcases:../../../../inet4.5/src:../../../../inet4.5/tests/validation:../../../../inet4.5/tests/networks:../../../../inet4.5/tutorials

network = mptcpexperiments.simulations.experiments.experiment3.oliascenariob
sim-time-limit = 120s
record-eventlog = false
cmdenv-express-mode = true
cmdenv-event-banners = false
cmdenv-redirect-output = false
cmdenv-output-file = experiment3Log.txt
cmdenv-log-prefix = %t | %m |
**.cmdenv-log-level = off

# Scaled OLIA-paper Scenario B: three Blue and three Red MPTCP users.
# Blue paths: x1=X and x2=T. Red paths: y1=X->T and y2=T.
# All paths have 100 ms base RTT; X=27 Mbps and T=36 Mbps.
# Every queue uses the higher bottleneck BDP: 311 packets at MSS 1448.
# All six users start uniformly in the first 5 seconds.
**.numberOfSubflows = 2
**.startAllSubflowsAtBeginning = true
**.subflowStartTimes = ""
*.configurator.config = xmldoc("../scenarios/experiment3/routes.xml")
*.configurator.addDefaultRoutes = false
*.configurator.addSubnetRoutes = false
*.configurator.optimizeRoutes = false

**.client[*].numApps = 1
**.client[*].app[0].typename = "MpTcpSessionApp"
*.client[0].app[0].connectAddress = "server[0]"
*.client[1].app[0].connectAddress = "server[1]"
*.client[2].app[0].connectAddress = "server[2]"
*.client[3].app[0].connectAddress = "server[3]"
*.client[4].app[0].connectAddress = "server[4]"
*.client[5].app[0].connectAddress = "server[5]"
*.client[0].tcp.subflowRemoteAddresses = "server[0]>blueXExit[0] server[0]>blueTExit[0]"
*.client[1].tcp.subflowRemoteAddresses = "server[1]>blueXExit[1] server[1]>blueTExit[1]"
*.client[2].tcp.subflowRemoteAddresses = "server[2]>blueXExit[2] server[2]>blueTExit[2]"
*.client[3].tcp.subflowRemoteAddresses = "server[3]>redXExit[0] server[3]>redTExit[0]"
*.client[4].tcp.subflowRemoteAddresses = "server[4]>redXExit[1] server[4]>redTExit[1]"
*.client[5].tcp.subflowRemoteAddresses = "server[5]>redXExit[2] server[5]>redTExit[2]"
**.client[*].app[0].tOpen = 0.1s
**.client[*].app[0].tSend = 0.1s
**.client[*].app[0].tClose = -1s
**.client[*].app[0].sendBytes = 2GB
**.client[*].app[0].dataTransferMode = "bytecount"
**.client[*].app[0].statistic-recording = true

**.server[*].numApps = 1
**.server[*].app[0].typename = "MpTcpSinkApp"
**.server[*].app[0].serverThreadModuleType = "tcpgoodputapplications.applications.tcpapp.TcpGoodputSinkAppThread"

**.tcp.advertisedWindow = 200000000
**.tcp.windowScalingSupport = true
**.tcp.windowScalingFactor = -1
**.tcp.increasedIWEnabled = true
**.tcp.delayedAcksEnabled = false
**.tcp.timestampSupport = true
**.tcp.ecnWillingness = false
**.tcp.nagleEnabled = true
**.tcp.stopOperationTimeout = 4000s
**.tcp.mss = 1448
**.tcp.sackSupport = true
**.tcp.initialSsthresh = 5792000
**.tcp.sendQueueLimit = 4MiB
**.schedulerMode = "default"

**.goodputInterval = 0.5s
**.throughputInterval = 0.5s
**.**.goodput:vector(removeRepeats).vector-recording = true
**.**.goodput.result-recording-modes = vector(removeRepeats)
**.**.tcp.conn-*.throughput:vector(removeRepeats).vector-recording = true
**.**.tcp.conn-*.cwnd:vector(removeRepeats).vector-recording = true
**.**.tcp.conn-*.retransmissionRate:vector(removeRepeats).vector-recording = true
**.**.tcp.conn-*.liaAlpha:vector(removeRepeats).vector-recording = true
**.**.tcp.conn-*.oliaEpsilon:vector(removeRepeats).vector-recording = true
**.**.tcp.conn-*.baliaAi:vector(removeRepeats).vector-recording = true
**.**.tcp.conn-*.baliaMd:vector(removeRepeats).vector-recording = true
**.**.tcp.conn-*.**.result-recording-modes = vector(removeRepeats)
**.xIngress.ppp[0].queue.queueLength:vector(removeRepeats).vector-recording = true
**.tIngress.ppp[0].queue.queueLength:vector(removeRepeats).vector-recording = true
**.xIngress.ppp[0].queue.queueLength.result-recording-modes = vector(removeRepeats)
**.tIngress.ppp[0].queue.queueLength.result-recording-modes = vector(removeRepeats)
**.ppp[*].queue.packetCapacity = 311
**.scalar-recording = false
**.vector-recording = false
**.bin-recording = false

**.tcp.typename = "MpOrb"
**.tcp.tcpAlgorithmClass = "MpOrbSemiCoupled"
# ORBCC needs INT telemetry on both forward bottlenecks.
# Specific IntQueue assignments must precede the broad DropTail fallback.
**.xIngress.ppp[0].queue.typename = "IntQueue"
**.tIngress.ppp[0].queue.typename = "IntQueue"
**.ppp[*].queue.typename = "DropTailQueue"
**.ppp[*].queue.dropperClass = "inet::queueing::PacketAtCollectionEndDropper"
**.additiveIncreasePercent = 0.05
**.eta = 0.95
**.alpha = 0
**.fixedAvgRTTVal = 0

[Config MpOrbSemiCoupled_Run1]
extends = General
description = "Semi-coupled MPORB/ORBCC; OLIA Scenario B, run 1."
seed-set = 1
*.client[0].app[0].tOpen = 2.050048s
*.client[0].app[0].tSend = 2.050048s
*.client[1].app[0].tOpen = 2.089710s
*.client[1].app[0].tSend = 2.089710s
*.client[2].app[0].tOpen = 2.319165s
*.client[2].app[0].tSend = 2.319165s
*.client[3].app[0].tOpen = 4.730306s
*.client[3].app[0].tSend = 4.730306s
*.client[4].app[0].tOpen = 2.536919s
*.client[4].app[0].tSend = 2.536919s
*.client[5].app[0].tOpen = 3.288782s
*.client[5].app[0].tSend = 3.288782s
output-vector-file = "results/MpOrbSemiCoupled_Run1-#0.vec"
output-scalar-file = "results/MpOrbSemiCoupled_Run1-#0.sca"

[Config MpOrbSemiCoupled_Run2]
extends = General
description = "Semi-coupled MPORB/ORBCC; OLIA Scenario B, run 2."
seed-set = 2
*.client[0].app[0].tOpen = 2.076901s
*.client[0].app[0].tSend = 2.076901s
*.client[1].app[0].tOpen = 0.686884s
*.client[1].app[0].tSend = 0.686884s
*.client[2].app[0].tOpen = 0.968175s
*.client[2].app[0].tSend = 0.968175s
*.client[3].app[0].tOpen = 3.850564s
*.client[3].app[0].tSend = 3.850564s
*.client[4].app[0].tOpen = 3.486668s
*.client[4].app[0].tSend = 3.486668s
*.client[5].app[0].tOpen = 3.719981s
*.client[5].app[0].tSend = 3.719981s
output-vector-file = "results/MpOrbSemiCoupled_Run2-#0.vec"
output-scalar-file = "results/MpOrbSemiCoupled_Run2-#0.sca"

[Config MpOrbSemiCoupled_Run3]
extends = General
description = "Semi-coupled MPORB/ORBCC; OLIA Scenario B, run 3."
seed-set = 3
*.client[0].app[0].tOpen = 4.551167s
*.client[0].app[0].tSend = 4.551167s
*.client[1].app[0].tOpen = 3.466595s
*.client[1].app[0].tSend = 3.466595s
*.client[2].app[0].tOpen = 4.405377s
*.client[2].app[0].tSend = 4.405377s
*.client[3].app[0].tOpen = 4.039337s
*.client[3].app[0].tSend = 4.039337s
*.client[4].app[0].tOpen = 0.127759s
*.client[4].app[0].tSend = 0.127759s
*.client[5].app[0].tOpen = 3.772052s
*.client[5].app[0].tSend = 3.772052s
output-vector-file = "results/MpOrbSemiCoupled_Run3-#0.vec"
output-scalar-file = "results/MpOrbSemiCoupled_Run3-#0.sca"

[Config MpOrbSemiCoupled_Run4]
extends = General
description = "Semi-coupled MPORB/ORBCC; OLIA Scenario B, run 4."
seed-set = 4
*.client[0].app[0].tOpen = 4.877128s
*.client[0].app[0].tSend = 4.877128s
*.client[1].app[0].tOpen = 1.207089s
*.client[1].app[0].tSend = 1.207089s
*.client[2].app[0].tOpen = 1.157148s
*.client[2].app[0].tSend = 1.157148s
*.client[3].app[0].tOpen = 0.308805s
*.client[3].app[0].tSend = 0.308805s
*.client[4].app[0].tOpen = 0.501040s
*.client[4].app[0].tSend = 0.501040s
*.client[5].app[0].tOpen = 3.224425s
*.client[5].app[0].tSend = 3.224425s
output-vector-file = "results/MpOrbSemiCoupled_Run4-#0.vec"
output-scalar-file = "results/MpOrbSemiCoupled_Run4-#0.sca"

[Config MpOrbSemiCoupled_Run5]
extends = General
description = "Semi-coupled MPORB/ORBCC; OLIA Scenario B, run 5."
seed-set = 5
*.client[0].app[0].tOpen = 2.378191s
*.client[0].app[0].tSend = 2.378191s
*.client[1].app[0].tOpen = 1.774780s
*.client[1].app[0].tSend = 1.774780s
*.client[2].app[0].tOpen = 2.552100s
*.client[2].app[0].tSend = 2.552100s
*.client[3].app[0].tOpen = 3.917637s
*.client[3].app[0].tSend = 3.917637s
*.client[4].app[0].tOpen = 1.998698s
*.client[4].app[0].tSend = 1.998698s
*.client[5].app[0].tOpen = 2.240374s
*.client[5].app[0].tSend = 2.240374s
output-vector-file = "results/MpOrbSemiCoupled_Run5-#0.vec"
output-scalar-file = "results/MpOrbSemiCoupled_Run5-#0.sca"

