[General]
ned-path = ../..:../../../src:../../../../mptcp/simulations:../../../../mptcp/src:../../../../mporb/simulations:../../../../mporb/src:../../../../orbtcp/simulations:../../../../orbtcp/src:../../../../cubic/simulations:../../../../cubic/src:../../../../tcpPaced/simulations:../../../../tcpPaced/src:../../../../tcpGoodputApplications/simulations:../../../../tcpGoodputApplications/src:../../../../inet4.5/examples:../../../../inet4.5/showcases:../../../../inet4.5/src:../../../../inet4.5/tests/validation:../../../../inet4.5/tests/networks:../../../../inet4.5/tutorials

network = mptcpexperiments.simulations.experiments.experiment3.oliapareto
sim-time-limit = 150s
record-eventlog = false
cmdenv-express-mode = true
cmdenv-event-banners = false
cmdenv-redirect-output = false
cmdenv-output-file = experiment3Log.txt
cmdenv-log-prefix = %t | %m |
**.cmdenv-log-level = off

# Compact Scenario B: 4 Blue and 4 Red MPTCP connections.
# OLIA motivation: Red y1 crosses both X and T, so each Mbps on y1
# consumes two bottlenecks and reduces achievable aggregate goodput by one Mbps.
# Blue paths: x1=X, x2=T. Red paths: y1=X->T, y2=T.
# All paths have 50 ms base RTT; X=27 Mbps and T=36 Mbps.
# Every queue uses the higher BDP: 156 packets at MSS 1448.
**.numberOfSubflows = 2
**.startAllSubflowsAtBeginning = true
**.subflowStartTimes = ""
*.configurator.config = xmldoc("../scenarios/experiment3/routes.xml")
*.configurator.addDefaultRoutes = false
*.configurator.addSubnetRoutes = false
*.configurator.optimizeRoutes = false

**.client[*].numApps = 1
**.client[*].app[0].typename = "MpTcpSessionApp"
*.client[0].app[0].connectAddress = "server[0]"
*.client[0].tcp.subflowRemoteAddresses = "server[0]>blueXExit server[0]>blueTExit"
*.client[1].app[0].connectAddress = "server[1]"
*.client[1].tcp.subflowRemoteAddresses = "server[1]>blueXExit server[1]>blueTExit"
*.client[2].app[0].connectAddress = "server[2]"
*.client[2].tcp.subflowRemoteAddresses = "server[2]>blueXExit server[2]>blueTExit"
*.client[3].app[0].connectAddress = "server[3]"
*.client[3].tcp.subflowRemoteAddresses = "server[3]>blueXExit server[3]>blueTExit"
*.client[4].app[0].connectAddress = "server[4]"
*.client[4].tcp.subflowRemoteAddresses = "server[4]>redXExit server[4]>redTExit"
*.client[5].app[0].connectAddress = "server[5]"
*.client[5].tcp.subflowRemoteAddresses = "server[5]>redXExit server[5]>redTExit"
*.client[6].app[0].connectAddress = "server[6]"
*.client[6].tcp.subflowRemoteAddresses = "server[6]>redXExit server[6]>redTExit"
*.client[7].app[0].connectAddress = "server[7]"
*.client[7].tcp.subflowRemoteAddresses = "server[7]>redXExit server[7]>redTExit"
**.client[*].app[0].tOpen = 0.1s
**.client[*].app[0].tSend = 0.1s
**.client[*].app[0].tClose = -1s
**.client[*].app[0].sendBytes = 2GB
**.client[*].app[0].dataTransferMode = "bytecount"
**.client[*].app[0].statistic-recording = true

**.server[*].numApps = 1
**.server[*].app[0].typename = "MpTcpSinkApp"
**.server[*].app[0].serverThreadModuleType = "tcpgoodputapplications.applications.tcpapp.TcpGoodputSinkAppThread"

**.tcp.advertisedWindow = 200000000
**.tcp.windowScalingSupport = true
**.tcp.windowScalingFactor = -1
**.tcp.increasedIWEnabled = true
**.tcp.delayedAcksEnabled = false
**.tcp.timestampSupport = true
**.tcp.ecnWillingness = false
**.tcp.nagleEnabled = true
**.tcp.stopOperationTimeout = 4000s
**.tcp.mss = 1448
**.tcp.sackSupport = true
**.tcp.initialSsthresh = 43440
**.tcp.sendQueueLimit = 4MiB
**.schedulerMode = "default"

**.goodputInterval = 0.5s
**.throughputInterval = 0.5s
**.**.goodput:vector(removeRepeats).vector-recording = true
**.**.goodput.result-recording-modes = vector(removeRepeats)
**.**.tcp.conn-*.throughput:vector(removeRepeats).vector-recording = true
**.**.tcp.conn-*.cwnd:vector(removeRepeats).vector-recording = true
**.**.tcp.conn-*.retransmissionRate:vector(removeRepeats).vector-recording = true
**.**.tcp.conn-*.liaAlpha:vector(removeRepeats).vector-recording = true
**.**.tcp.conn-*.oliaEpsilon:vector(removeRepeats).vector-recording = true
**.**.tcp.conn-*.baliaAi:vector(removeRepeats).vector-recording = true
**.**.tcp.conn-*.baliaMd:vector(removeRepeats).vector-recording = true
**.**.tcp.conn-*.semiCoupledAlphaSubflowRate:vector(removeRepeats).vector-recording = true
**.**.tcp.conn-*.semiCoupledAlphaConnectionRate:vector(removeRepeats).vector-recording = true
**.**.tcp.conn-*.semiCoupledAlphaRateShare:vector(removeRepeats).vector-recording = true
**.**.tcp.conn-*.semiCoupledDeltaTargetShare:vector(removeRepeats).vector-recording = true
**.**.tcp.conn-*.semiCoupledDeltaRateShare:vector(removeRepeats).vector-recording = true
**.**.tcp.conn-*.semiCoupledDeltaAiShare:vector(removeRepeats).vector-recording = true
**.**.tcp.conn-*.**.result-recording-modes = vector(removeRepeats)
**.xIngress.ppp[0].queue.queueLength:vector(removeRepeats).vector-recording = true
**.tIngress.ppp[0].queue.queueLength:vector(removeRepeats).vector-recording = true
**.xIngress.ppp[0].queue.queueLength.result-recording-modes = vector(removeRepeats)
**.tIngress.ppp[0].queue.queueLength.result-recording-modes = vector(removeRepeats)
**.ppp[*].queue.packetCapacity = 156
**.scalar-recording = false
**.vector-recording = false
**.bin-recording = false

**.tcp.typename = "MpTcp"
**.tcp.tcpAlgorithmClass = "MpTcpOlia"
**.ppp[*].queue.typename = "DropTailQueue"
**.ppp[*].queue.dropperClass = "inet::queueing::PacketAtCollectionEndDropper"

[Config OliaCoupled_Run1]
extends = General
description = "OLIA; all-MPTCP Scenario B, run 1."
seed-set = 1
*.client[0].app[0].tOpen = 0.879018s
*.client[0].app[0].tSend = 0.879018s
*.client[1].app[0].tOpen = 0.894090s
*.client[1].app[0].tSend = 0.894090s
*.client[2].app[0].tOpen = 0.981283s
*.client[2].app[0].tSend = 0.981283s
*.client[3].app[0].tOpen = 1.897516s
*.client[3].app[0].tSend = 1.897516s
*.client[4].app[0].tOpen = 1.064029s
*.client[4].app[0].tSend = 1.064029s
*.client[5].app[0].tOpen = 1.349737s
*.client[5].app[0].tSend = 1.349737s
*.client[6].app[0].tOpen = 0.699711s
*.client[6].app[0].tSend = 0.699711s
*.client[7].app[0].tOpen = 1.364060s
*.client[7].app[0].tSend = 1.364060s
output-vector-file = "results/OliaCoupled_Run1-#0.vec"
output-scalar-file = "results/OliaCoupled_Run1-#0.sca"

[Config OliaCoupled_Run2]
extends = General
description = "OLIA; all-MPTCP Scenario B, run 2."
seed-set = 2
*.client[0].app[0].tOpen = 0.889222s
*.client[0].app[0].tSend = 0.889222s
*.client[1].app[0].tOpen = 0.361016s
*.client[1].app[0].tSend = 0.361016s
*.client[2].app[0].tOpen = 0.467907s
*.client[2].app[0].tSend = 0.467907s
*.client[3].app[0].tOpen = 1.563214s
*.client[3].app[0].tSend = 1.563214s
*.client[4].app[0].tOpen = 1.424934s
*.client[4].app[0].tSend = 1.424934s
*.client[5].app[0].tOpen = 1.513593s
*.client[5].app[0].tSend = 1.513593s
*.client[6].app[0].tOpen = 1.712724s
*.client[6].app[0].tSend = 1.712724s
*.client[7].app[0].tOpen = 0.992736s
*.client[7].app[0].tSend = 0.992736s
output-vector-file = "results/OliaCoupled_Run2-#0.vec"
output-scalar-file = "results/OliaCoupled_Run2-#0.sca"

[Config OliaCoupled_Run3]
extends = General
description = "OLIA; all-MPTCP Scenario B, run 3."
seed-set = 3
*.client[0].app[0].tOpen = 1.829443s
*.client[0].app[0].tSend = 1.829443s
*.client[1].app[0].tOpen = 1.417306s
*.client[1].app[0].tSend = 1.417306s
*.client[2].app[0].tOpen = 1.774043s
*.client[2].app[0].tSend = 1.774043s
*.client[3].app[0].tOpen = 1.634948s
*.client[3].app[0].tSend = 1.634948s
*.client[4].app[0].tOpen = 0.148548s
*.client[4].app[0].tSend = 0.148548s
*.client[5].app[0].tOpen = 1.533380s
*.client[5].app[0].tSend = 1.533380s
*.client[6].app[0].tOpen = 1.516514s
*.client[6].app[0].tSend = 1.516514s
*.client[7].app[0].tOpen = 0.221177s
*.client[7].app[0].tSend = 0.221177s
output-vector-file = "results/OliaCoupled_Run3-#0.vec"
output-scalar-file = "results/OliaCoupled_Run3-#0.sca"

[Config OliaCoupled_Run4]
extends = General
description = "OLIA; all-MPTCP Scenario B, run 4."
seed-set = 4
*.client[0].app[0].tOpen = 1.953309s
*.client[0].app[0].tSend = 1.953309s
*.client[1].app[0].tOpen = 0.558694s
*.client[1].app[0].tSend = 0.558694s
*.client[2].app[0].tOpen = 0.539716s
*.client[2].app[0].tSend = 0.539716s
*.client[3].app[0].tOpen = 0.217346s
*.client[3].app[0].tSend = 0.217346s
*.client[4].app[0].tOpen = 0.290395s
*.client[4].app[0].tSend = 0.290395s
*.client[5].app[0].tOpen = 1.325281s
*.client[5].app[0].tSend = 1.325281s
*.client[6].app[0].tOpen = 1.409494s
*.client[6].app[0].tSend = 1.409494s
*.client[7].app[0].tOpen = 1.185183s
*.client[7].app[0].tSend = 1.185183s
output-vector-file = "results/OliaCoupled_Run4-#0.vec"
output-scalar-file = "results/OliaCoupled_Run4-#0.sca"

[Config OliaCoupled_Run5]
extends = General
description = "OLIA; all-MPTCP Scenario B, run 5."
seed-set = 5
*.client[0].app[0].tOpen = 1.003713s
*.client[0].app[0].tSend = 1.003713s
*.client[1].app[0].tOpen = 0.774416s
*.client[1].app[0].tSend = 0.774416s
*.client[2].app[0].tOpen = 1.069798s
*.client[2].app[0].tSend = 1.069798s
*.client[3].app[0].tOpen = 1.588702s
*.client[3].app[0].tSend = 1.588702s
*.client[4].app[0].tOpen = 0.859505s
*.client[4].app[0].tSend = 0.859505s
*.client[5].app[0].tOpen = 0.951342s
*.client[5].app[0].tSend = 0.951342s
*.client[6].app[0].tOpen = 0.102863s
*.client[6].app[0].tSend = 0.102863s
*.client[7].app[0].tOpen = 1.359268s
*.client[7].app[0].tSend = 1.359268s
output-vector-file = "results/OliaCoupled_Run5-#0.vec"
output-scalar-file = "results/OliaCoupled_Run5-#0.sca"

