[General]
ned-path = ../..:../../../src:../../../../mptcp/simulations:../../../../mptcp/src:../../../../mporb/simulations:../../../../mporb/src:../../../../orbtcp/simulations:../../../../orbtcp/src:../../../../cubic/simulations:../../../../cubic/src:../../../../tcpPaced/simulations:../../../../tcpPaced/src:../../../../tcpGoodputApplications/simulations:../../../../tcpGoodputApplications/src:../../../../inet4.5/examples:../../../../inet4.5/showcases:../../../../inet4.5/src:../../../../inet4.5/tests/validation:../../../../inet4.5/tests/networks:../../../../inet4.5/tutorials

network = mptcpexperiments.simulations.experiments.experiment3.oliapareto
sim-time-limit = 150s
record-eventlog = false
cmdenv-express-mode = true
cmdenv-event-banners = false
cmdenv-redirect-output = false
cmdenv-output-file = experiment3Log.txt
cmdenv-log-prefix = %t | %m |
**.cmdenv-log-level = off

# Compact Scenario B: 4 Blue and 4 Red MPTCP connections.
# OLIA motivation: Red y1 crosses both X and T, so each Mbps on y1
# consumes two bottlenecks and reduces achievable aggregate goodput by one Mbps.
# Blue paths: x1=X, x2=T. Red paths: y1=X->T, y2=T.
# Blue opens both paths immediately; Red opens y2 first and y1 after 30 s.
# All paths have 50 ms base RTT; X=27 Mbps and T=36 Mbps.
# Every queue uses the higher BDP: 156 packets at MSS 1448.
**.numberOfSubflows = 2
**.startAllSubflowsAtBeginning = true
*.client[4].tcp.subflowStartTimes = "0s 30s"
*.client[5].tcp.subflowStartTimes = "0s 30s"
*.client[6].tcp.subflowStartTimes = "0s 30s"
*.client[7].tcp.subflowStartTimes = "0s 30s"
**.subflowStartTimes = ""
*.configurator.config = xmldoc("../scenarios/experiment3/routes.xml")
*.configurator.addDefaultRoutes = false
*.configurator.addSubnetRoutes = false
*.configurator.optimizeRoutes = false

**.client[*].numApps = 1
**.client[*].app[0].typename = "MpTcpSessionApp"
*.client[0].app[0].connectAddress = "server[0]"
*.client[0].tcp.subflowRemoteAddresses = "server[0]>blueXExit server[0]>blueTExit"
*.client[1].app[0].connectAddress = "server[1]"
*.client[1].tcp.subflowRemoteAddresses = "server[1]>blueXExit server[1]>blueTExit"
*.client[2].app[0].connectAddress = "server[2]"
*.client[2].tcp.subflowRemoteAddresses = "server[2]>blueXExit server[2]>blueTExit"
*.client[3].app[0].connectAddress = "server[3]"
*.client[3].tcp.subflowRemoteAddresses = "server[3]>blueXExit server[3]>blueTExit"
*.client[4].app[0].connectAddress = "server[4]"
*.client[4].tcp.subflowRemoteAddresses = "server[4]>redTExit server[4]>redXExit"
*.client[5].app[0].connectAddress = "server[5]"
*.client[5].tcp.subflowRemoteAddresses = "server[5]>redTExit server[5]>redXExit"
*.client[6].app[0].connectAddress = "server[6]"
*.client[6].tcp.subflowRemoteAddresses = "server[6]>redTExit server[6]>redXExit"
*.client[7].app[0].connectAddress = "server[7]"
*.client[7].tcp.subflowRemoteAddresses = "server[7]>redTExit server[7]>redXExit"
**.client[*].app[0].tOpen = 0.1s
**.client[*].app[0].tSend = 0.1s
**.client[*].app[0].tClose = -1s
**.client[*].app[0].sendBytes = 2GB
**.client[*].app[0].dataTransferMode = "bytecount"
**.client[*].app[0].statistic-recording = true

**.server[*].numApps = 1
**.server[*].app[0].typename = "MpTcpSinkApp"
**.server[*].app[0].serverThreadModuleType = "tcpgoodputapplications.applications.tcpapp.TcpGoodputSinkAppThread"

**.tcp.advertisedWindow = 200000000
**.tcp.windowScalingSupport = true
**.tcp.windowScalingFactor = -1
**.tcp.increasedIWEnabled = true
**.tcp.delayedAcksEnabled = false
**.tcp.timestampSupport = true
**.tcp.ecnWillingness = false
**.tcp.nagleEnabled = true
**.tcp.stopOperationTimeout = 4000s
**.tcp.mss = 1448
**.tcp.sackSupport = true
**.tcp.initialSsthresh = 43440
**.tcp.sendQueueLimit = 4MiB
**.schedulerMode = "default"

**.goodputInterval = 0.5s
**.throughputInterval = 0.5s
**.**.goodput:vector(removeRepeats).vector-recording = true
**.**.goodput.result-recording-modes = vector(removeRepeats)
**.**.tcp.conn-*.throughput:vector(removeRepeats).vector-recording = true
**.**.tcp.conn-*.cwnd:vector(removeRepeats).vector-recording = true
**.**.tcp.conn-*.retransmissionRate:vector(removeRepeats).vector-recording = true
**.**.tcp.conn-*.liaAlpha:vector(removeRepeats).vector-recording = true
**.**.tcp.conn-*.oliaEpsilon:vector(removeRepeats).vector-recording = true
**.**.tcp.conn-*.baliaAi:vector(removeRepeats).vector-recording = true
**.**.tcp.conn-*.baliaMd:vector(removeRepeats).vector-recording = true
**.**.tcp.conn-*.semiCoupledAlphaSubflowRate:vector(removeRepeats).vector-recording = true
**.**.tcp.conn-*.semiCoupledAlphaConnectionRate:vector(removeRepeats).vector-recording = true
**.**.tcp.conn-*.semiCoupledAlphaRateShare:vector(removeRepeats).vector-recording = true
**.**.tcp.conn-*.mpOrbOliaBestPath:vector(removeRepeats).vector-recording = true
**.**.tcp.conn-*.mpOrbOliaMaxWindowPath:vector(removeRepeats).vector-recording = true
**.**.tcp.conn-*.mpOrbOliaCorrection:vector(removeRepeats).vector-recording = true
**.**.tcp.conn-*.semiCoupledBetaFairRate:vector(removeRepeats).vector-recording = true
**.**.tcp.conn-*.semiCoupledBetaTotalFairRate:vector(removeRepeats).vector-recording = true
**.**.tcp.conn-*.semiCoupledBetaFairRateShare:vector(removeRepeats).vector-recording = true
**.**.tcp.conn-*.semiCoupledDeltaTargetShare:vector(removeRepeats).vector-recording = true
**.**.tcp.conn-*.semiCoupledDeltaRateShare:vector(removeRepeats).vector-recording = true
**.**.tcp.conn-*.semiCoupledDeltaAiShare:vector(removeRepeats).vector-recording = true
**.**.tcp.conn-*.semiCoupledEpsilonPathCost:vector(removeRepeats).vector-recording = true
**.**.tcp.conn-*.semiCoupledEpsilonDesiredShare:vector(removeRepeats).vector-recording = true
**.**.tcp.conn-*.semiCoupledEpsilonRateShare:vector(removeRepeats).vector-recording = true
**.**.tcp.conn-*.semiCoupledEpsilonRedistribution:vector(removeRepeats).vector-recording = true
**.**.tcp.conn-*.semiCoupledZetaPathCost:vector(removeRepeats).vector-recording = true
**.**.tcp.conn-*.semiCoupledZetaPathWeight:vector(removeRepeats).vector-recording = true
**.**.tcp.conn-*.semiCoupledZetaConnectionAiRate:vector(removeRepeats).vector-recording = true
**.**.tcp.conn-*.**.result-recording-modes = vector(removeRepeats)
**.xIngress.ppp[0].queue.queueLength:vector(removeRepeats).vector-recording = true
**.tIngress.ppp[0].queue.queueLength:vector(removeRepeats).vector-recording = true
**.xIngress.ppp[0].queue.queueLength.result-recording-modes = vector(removeRepeats)
**.tIngress.ppp[0].queue.queueLength.result-recording-modes = vector(removeRepeats)
**.ppp[*].queue.packetCapacity = 156
**.scalar-recording = false
**.vector-recording = false
**.bin-recording = false

**.tcp.typename = "MpOrb"
**.tcp.tcpAlgorithmClass = "MpOrbSemiCoupledDelta"
# Specific IntQueue assignments must precede the broad fallback.
**.xIngress.ppp[0].queue.typename = "IntQueue"
**.tIngress.ppp[0].queue.typename = "IntQueue"
**.ppp[*].queue.typename = "DropTailQueue"
**.ppp[*].queue.dropperClass = "inet::queueing::PacketAtCollectionEndDropper"
**.additiveIncreasePercent = 0.05
**.eta = 0.95
**.alpha = 0
**.fixedAvgRTTVal = 0

[Config MpOrbDelta_Run1]
extends = General
description = "MPORB Delta; all-MPTCP Scenario B, run 1."
seed-set = 1
*.client[0].app[0].tOpen = 0.264004s
*.client[0].app[0].tSend = 0.264004s
*.client[1].app[0].tOpen = 0.267177s
*.client[1].app[0].tSend = 0.267177s
*.client[2].app[0].tOpen = 0.285533s
*.client[2].app[0].tSend = 0.285533s
*.client[3].app[0].tOpen = 0.478424s
*.client[3].app[0].tSend = 0.478424s
*.client[4].app[0].tOpen = 0.302954s
*.client[4].app[0].tSend = 0.302954s
*.client[5].app[0].tOpen = 0.363103s
*.client[5].app[0].tSend = 0.363103s
*.client[6].app[0].tOpen = 0.226255s
*.client[6].app[0].tSend = 0.226255s
*.client[7].app[0].tOpen = 0.366118s
*.client[7].app[0].tSend = 0.366118s
output-vector-file = "results/MpOrbDelta_Run1-#0.vec"
output-scalar-file = "results/MpOrbDelta_Run1-#0.sca"

[Config MpOrbDelta_Run2]
extends = General
description = "MPORB Delta; all-MPTCP Scenario B, run 2."
seed-set = 2
*.client[0].app[0].tOpen = 0.266152s
*.client[0].app[0].tSend = 0.266152s
*.client[1].app[0].tOpen = 0.154951s
*.client[1].app[0].tSend = 0.154951s
*.client[2].app[0].tOpen = 0.177454s
*.client[2].app[0].tSend = 0.177454s
*.client[3].app[0].tOpen = 0.408045s
*.client[3].app[0].tSend = 0.408045s
*.client[4].app[0].tOpen = 0.378933s
*.client[4].app[0].tSend = 0.378933s
*.client[5].app[0].tOpen = 0.397598s
*.client[5].app[0].tSend = 0.397598s
*.client[6].app[0].tOpen = 0.439521s
*.client[6].app[0].tSend = 0.439521s
*.client[7].app[0].tOpen = 0.287945s
*.client[7].app[0].tSend = 0.287945s
output-vector-file = "results/MpOrbDelta_Run2-#0.vec"
output-scalar-file = "results/MpOrbDelta_Run2-#0.sca"

[Config MpOrbDelta_Run3]
extends = General
description = "MPORB Delta; all-MPTCP Scenario B, run 3."
seed-set = 3
*.client[0].app[0].tOpen = 0.464093s
*.client[0].app[0].tSend = 0.464093s
*.client[1].app[0].tOpen = 0.377328s
*.client[1].app[0].tSend = 0.377328s
*.client[2].app[0].tOpen = 0.452430s
*.client[2].app[0].tSend = 0.452430s
*.client[3].app[0].tOpen = 0.423147s
*.client[3].app[0].tSend = 0.423147s
*.client[4].app[0].tOpen = 0.110221s
*.client[4].app[0].tSend = 0.110221s
*.client[5].app[0].tOpen = 0.401764s
*.client[5].app[0].tSend = 0.401764s
*.client[6].app[0].tOpen = 0.398214s
*.client[6].app[0].tSend = 0.398214s
*.client[7].app[0].tOpen = 0.125511s
*.client[7].app[0].tSend = 0.125511s
output-vector-file = "results/MpOrbDelta_Run3-#0.vec"
output-scalar-file = "results/MpOrbDelta_Run3-#0.sca"

[Config MpOrbDelta_Run4]
extends = General
description = "MPORB Delta; all-MPTCP Scenario B, run 4."
seed-set = 4
*.client[0].app[0].tOpen = 0.490170s
*.client[0].app[0].tSend = 0.490170s
*.client[1].app[0].tOpen = 0.196567s
*.client[1].app[0].tSend = 0.196567s
*.client[2].app[0].tOpen = 0.192572s
*.client[2].app[0].tSend = 0.192572s
*.client[3].app[0].tOpen = 0.124704s
*.client[3].app[0].tSend = 0.124704s
*.client[4].app[0].tOpen = 0.140083s
*.client[4].app[0].tSend = 0.140083s
*.client[5].app[0].tOpen = 0.357954s
*.client[5].app[0].tSend = 0.357954s
*.client[6].app[0].tOpen = 0.375683s
*.client[6].app[0].tSend = 0.375683s
*.client[7].app[0].tOpen = 0.328459s
*.client[7].app[0].tSend = 0.328459s
output-vector-file = "results/MpOrbDelta_Run4-#0.vec"
output-scalar-file = "results/MpOrbDelta_Run4-#0.sca"

[Config MpOrbDelta_Run5]
extends = General
description = "MPORB Delta; all-MPTCP Scenario B, run 5."
seed-set = 5
*.client[0].app[0].tOpen = 0.290255s
*.client[0].app[0].tSend = 0.290255s
*.client[1].app[0].tOpen = 0.241982s
*.client[1].app[0].tSend = 0.241982s
*.client[2].app[0].tOpen = 0.304168s
*.client[2].app[0].tSend = 0.304168s
*.client[3].app[0].tOpen = 0.413411s
*.client[3].app[0].tSend = 0.413411s
*.client[4].app[0].tOpen = 0.259896s
*.client[4].app[0].tSend = 0.259896s
*.client[5].app[0].tOpen = 0.279230s
*.client[5].app[0].tSend = 0.279230s
*.client[6].app[0].tOpen = 0.100603s
*.client[6].app[0].tSend = 0.100603s
*.client[7].app[0].tOpen = 0.365109s
*.client[7].app[0].tSend = 0.365109s
output-vector-file = "results/MpOrbDelta_Run5-#0.vec"
output-scalar-file = "results/MpOrbDelta_Run5-#0.sca"

