[General]
ned-path = ../..:../../../src:../../../../mptcp/simulations:../../../../mptcp/src:../../../../mporb/simulations:../../../../mporb/src:../../../../orbtcp/simulations:../../../../orbtcp/src:../../../../cubic/simulations:../../../../cubic/src:../../../../tcpPaced/simulations:../../../../tcpPaced/src:../../../../tcpGoodputApplications/simulations:../../../../tcpGoodputApplications/src:../../../../inet4.5/examples:../../../../inet4.5/showcases:../../../../inet4.5/src:../../../../inet4.5/tests/validation:../../../../inet4.5/tests/networks:../../../../inet4.5/tutorials

network = mptcpexperiments.simulations.experiments.experiment3.oliapareto
sim-time-limit = 100s
record-eventlog = false
cmdenv-express-mode = true
cmdenv-event-banners = false
cmdenv-redirect-output = false
cmdenv-output-file = experiment3Log.txt
cmdenv-log-prefix = %t | %m |
**.cmdenv-log-level = off

# OLIA motivation: Red y1 crosses both X and T, so each Mbps on y1
# consumes two bottlenecks and reduces achievable aggregate goodput by one Mbps.
# Blue paths: x1=X, x2=T. Red paths: y1=X->T, y2=T.
# All paths have 100 ms base RTT; X=90 Mbps and T=120 Mbps.
# Every queue uses the higher BDP: 1036 packets at MSS 1448.
**.numberOfSubflows = 2
**.startAllSubflowsAtBeginning = true
**.subflowStartTimes = ""
*.configurator.config = xmldoc("../scenarios/experiment3/routes.xml")
*.configurator.addDefaultRoutes = false
*.configurator.addSubnetRoutes = false
*.configurator.optimizeRoutes = false

**.client[*].numApps = 1
**.client[*].app[0].typename = "MpTcpSessionApp"
*.client[0].app[0].connectAddress = "server[0]"
*.client[1].app[0].connectAddress = "server[1]"
*.client[0].tcp.subflowRemoteAddresses = "server[0]>blueXExit server[0]>blueTExit"
*.client[1].tcp.subflowRemoteAddresses = "server[1]>redXExit server[1]>redTExit"
**.client[*].app[0].tOpen = 0.1s
**.client[*].app[0].tSend = 0.1s
**.client[*].app[0].tClose = -1s
**.client[*].app[0].sendBytes = 2GB
**.client[*].app[0].dataTransferMode = "bytecount"
**.client[*].app[0].statistic-recording = true

**.server[*].numApps = 1
**.server[*].app[0].typename = "MpTcpSinkApp"
**.server[*].app[0].serverThreadModuleType = "tcpgoodputapplications.applications.tcpapp.TcpGoodputSinkAppThread"

**.tcp.advertisedWindow = 200000000
**.tcp.windowScalingSupport = true
**.tcp.windowScalingFactor = -1
**.tcp.increasedIWEnabled = true
**.tcp.delayedAcksEnabled = false
**.tcp.timestampSupport = true
**.tcp.ecnWillingness = false
**.tcp.nagleEnabled = true
**.tcp.stopOperationTimeout = 4000s
**.tcp.mss = 1448
**.tcp.sackSupport = true
**.tcp.initialSsthresh = 1125000
**.tcp.sendQueueLimit = 4MiB
**.schedulerMode = "default"

**.goodputInterval = 0.5s
**.throughputInterval = 0.5s
**.**.goodput:vector(removeRepeats).vector-recording = true
**.**.goodput.result-recording-modes = vector(removeRepeats)
**.**.tcp.conn-*.throughput:vector(removeRepeats).vector-recording = true
**.**.tcp.conn-*.cwnd:vector(removeRepeats).vector-recording = true
**.**.tcp.conn-*.retransmissionRate:vector(removeRepeats).vector-recording = true
**.**.tcp.conn-*.liaAlpha:vector(removeRepeats).vector-recording = true
**.**.tcp.conn-*.oliaEpsilon:vector(removeRepeats).vector-recording = true
**.**.tcp.conn-*.baliaAi:vector(removeRepeats).vector-recording = true
**.**.tcp.conn-*.baliaMd:vector(removeRepeats).vector-recording = true
**.**.tcp.conn-*.semiCoupledDeltaTargetShare:vector(removeRepeats).vector-recording = true
**.**.tcp.conn-*.semiCoupledDeltaRateShare:vector(removeRepeats).vector-recording = true
**.**.tcp.conn-*.semiCoupledDeltaAiShare:vector(removeRepeats).vector-recording = true
**.**.tcp.conn-*.**.result-recording-modes = vector(removeRepeats)
**.xIngress.ppp[0].queue.queueLength:vector(removeRepeats).vector-recording = true
**.tIngress.ppp[0].queue.queueLength:vector(removeRepeats).vector-recording = true
**.xIngress.ppp[0].queue.queueLength.result-recording-modes = vector(removeRepeats)
**.tIngress.ppp[0].queue.queueLength.result-recording-modes = vector(removeRepeats)
**.ppp[*].queue.packetCapacity = 1036
**.scalar-recording = false
**.vector-recording = false
**.bin-recording = false

**.tcp.typename = "MpOrb"
**.tcp.tcpAlgorithmClass = "MpOrbUncoupled"
# Specific IntQueue assignments must precede the broad fallback.
**.xIngress.ppp[0].queue.typename = "IntQueue"
**.tIngress.ppp[0].queue.typename = "IntQueue"
**.ppp[*].queue.typename = "DropTailQueue"
**.ppp[*].queue.dropperClass = "inet::queueing::PacketAtCollectionEndDropper"
**.additiveIncreasePercent = 0.05
**.eta = 0.95
**.alpha = 0.01
**.fixedAvgRTTVal = 0

[Config MpOrbUncoupled_Run1]
extends = General
description = "Uncoupled ORBCC; OLIA Pareto test, run 1."
seed-set = 1
*.client[0].app[0].tOpen = 0.879018s
*.client[0].app[0].tSend = 0.879018s
*.client[1].app[0].tOpen = 0.894090s
*.client[1].app[0].tSend = 0.894090s
output-vector-file = "results/MpOrbUncoupled_Run1-#0.vec"
output-scalar-file = "results/MpOrbUncoupled_Run1-#0.sca"

[Config MpOrbUncoupled_Run2]
extends = General
description = "Uncoupled ORBCC; OLIA Pareto test, run 2."
seed-set = 2
*.client[0].app[0].tOpen = 0.889222s
*.client[0].app[0].tSend = 0.889222s
*.client[1].app[0].tOpen = 0.361016s
*.client[1].app[0].tSend = 0.361016s
output-vector-file = "results/MpOrbUncoupled_Run2-#0.vec"
output-scalar-file = "results/MpOrbUncoupled_Run2-#0.sca"

[Config MpOrbUncoupled_Run3]
extends = General
description = "Uncoupled ORBCC; OLIA Pareto test, run 3."
seed-set = 3
*.client[0].app[0].tOpen = 1.829443s
*.client[0].app[0].tSend = 1.829443s
*.client[1].app[0].tOpen = 1.417306s
*.client[1].app[0].tSend = 1.417306s
output-vector-file = "results/MpOrbUncoupled_Run3-#0.vec"
output-scalar-file = "results/MpOrbUncoupled_Run3-#0.sca"

[Config MpOrbUncoupled_Run4]
extends = General
description = "Uncoupled ORBCC; OLIA Pareto test, run 4."
seed-set = 4
*.client[0].app[0].tOpen = 1.953309s
*.client[0].app[0].tSend = 1.953309s
*.client[1].app[0].tOpen = 0.558694s
*.client[1].app[0].tSend = 0.558694s
output-vector-file = "results/MpOrbUncoupled_Run4-#0.vec"
output-scalar-file = "results/MpOrbUncoupled_Run4-#0.sca"

[Config MpOrbUncoupled_Run5]
extends = General
description = "Uncoupled ORBCC; OLIA Pareto test, run 5."
seed-set = 5
*.client[0].app[0].tOpen = 1.003713s
*.client[0].app[0].tSend = 1.003713s
*.client[1].app[0].tOpen = 0.774416s
*.client[1].app[0].tSend = 0.774416s
output-vector-file = "results/MpOrbUncoupled_Run5-#0.vec"
output-scalar-file = "results/MpOrbUncoupled_Run5-#0.sca"

